*PLANT N OUTPUT FILE

*DSSAT Cropping System Model Ver. 4.6.1.000 -release      DEC 02, 2018; 12:33:06
                                                                                
*RUN   1        : 86_01                     RICER046 SSKT0001    1              
 MODEL          : RICER046 - Rice                                               
 EXPERIMENT     : SSKT0001 RI mulation, Thailand                                
 DATA PATH      : C:\DSSAT46\Rice\                                              
 TREATMENT  1   : 86_01                     RICER046                            
  
@YEAR DOY   DAS   DAP  CNAD  GNAD  VNAD  GN%D  VN%D  NUPC  LNAD  SNAD  LN%D  SN%D  SHND  RN%D  SNN0C  SNN1C                                 
 1986 213    35     0   9.1   0.0   9.1  0.00  3.20   1.4   8.2   0.9  3.20  3.20  0.00  0.57   0.00   0.00
 1986 214    36     1   9.7   0.0   9.7  0.00  3.42   2.2   8.7   1.0  3.42  3.42  0.00  0.73   0.00   0.00
 1986 215    37     2   9.9   0.0   9.9  0.00  3.48   2.5   8.9   1.0  3.48  3.48  0.00  0.78   0.01   0.00
 1986 216    38     3  10.8   0.0  10.8  0.00  3.80   4.4   9.7   1.1  3.80  3.80  0.00  1.38   0.02   0.00
 1986 217    39     4  10.8   0.0  10.8  0.00  3.80   4.5   9.7   1.1  3.80  3.80  0.00  1.30   0.03   0.16
 1986 218    40     5  10.8   0.0  10.8  0.00  3.79   4.5   9.7   1.1  3.79  3.79  0.00  1.22   0.04   0.32
 1986 219    41     6  10.8   0.0  10.8  0.00  3.77   4.6   9.7   1.1  3.77  3.77  0.00  1.17   0.05   0.48
 1986 220    42     7  10.8   0.0  10.8  0.00  3.53   4.6   9.5   1.3  3.53  3.53  0.00  1.12   0.06   0.65
 1986 221    43     8  11.4   0.0  11.4  0.00  3.45   5.2   9.7   1.7  3.45  3.45  0.00  1.06   0.07   0.83
 1986 222    44     9  12.5   0.0  12.5  0.00  3.42   6.4  10.3   2.2  3.42  3.42  0.00  1.04   0.08   1.00
 1986 223    45    10  13.6   0.0  13.6  0.00  3.39   7.6  10.9   2.7  3.39  3.39  0.00  1.02   0.09   1.17
 1986 224    46    11  15.9   0.0  15.9  0.00  3.40  10.1  12.1   3.7  3.40  3.40  0.00  1.04   0.10   1.35
 1986 225    47    12  17.3   0.0  17.3  0.00  3.38  11.6  12.9   4.4  3.38  3.38  0.00  1.03   0.11   1.54
 1986 226    48    13  19.5   0.0  19.5  0.00  3.39  13.9  14.1   5.4  3.39  3.39  0.00  1.04   0.11   1.73
 1986 227    49    14  22.2   0.0  22.2  0.00  3.37  16.8  15.5   6.6  3.37  3.37  0.00  1.04   0.12   1.94
 1986 228    50    15  24.7   0.0  24.7  0.00  3.36  19.6  16.9   7.8  3.36  3.36  0.00  1.04   0.13   2.16
 1986 229    51    16  27.1   0.0  27.1  0.00  3.35  22.1  18.2   8.9  3.35  3.35  0.00  1.03   0.14   2.40
 1986 230    52    17  28.7   0.0  28.7  0.00  3.11  23.8  18.9   9.8  3.11  3.11  0.00  0.99   0.15   2.64
 1986 231    53    18  29.8   0.0  29.8  0.00  2.84  25.0  19.1  10.7  2.84  2.84  0.00  0.94   0.18   2.64
 1986 232    54    19  30.6   0.0  30.6  0.00  2.70  25.9  19.1  11.5  2.70  2.70  0.00  0.91   0.21   2.64
 1986 233    55    20  30.8   0.0  30.8  0.00  2.49  26.1  18.6  12.1  2.49  2.49  0.00  0.87   0.26   2.64
 1986 234    56    21  31.4   0.0  31.4  0.00  2.40  26.8  18.6  12.8  2.40  2.40  0.00  0.85   0.31   2.64
 1986 235    57    22  31.6   0.0  31.6  0.00  2.33  27.0  18.4  13.2  2.33  2.33  0.00  0.84   0.38   2.64
 1986 236    58    23  31.9   0.0  31.9  0.00  2.22  27.2  18.0  13.8  2.22  2.22  0.00  0.81   0.45   2.64
 1986 237    59    24  32.1   0.0  32.1  0.00  2.17  27.5  17.9  14.2  2.17  2.17  0.00  0.80   0.54   2.64
 1986 238    60    25  32.3   0.0  32.3  0.00  2.10  27.7  17.7  14.7  2.10  2.10  0.00  0.79   0.63   2.64
 1986 239    61    26  33.1   0.0  33.1  0.00  2.07  28.6  17.7  15.4  2.07  2.07  0.00  0.78   0.74   2.64
 1986 240    62    27  33.4   0.0  33.4  0.00  2.02  28.9  17.6  15.9  2.02  2.02  0.00  0.77   0.85   2.64
 1986 241    63    28  33.8   0.0  33.8  0.00  1.98  29.3  17.5  16.3  1.98  1.98  0.00  0.76   0.97   2.64
 1986 242    64    29  34.1   0.0  34.1  0.00  1.93  29.6  17.3  16.8  1.93  1.93  0.00  0.75   1.10   2.64
 1986 243    65    30  34.3   0.0  34.3  0.00  1.88  29.8  17.0  17.3  1.88  1.88  0.00  0.74   1.25   2.64
 1986 244    66    31  35.0   0.0  35.0  0.00  1.86  30.6  17.1  18.0  1.86  1.86  0.00  0.73   1.40   2.64
 1986 245    67    32  35.3   0.0  35.3  0.00  1.83  30.9  17.0  18.3  1.83  1.83  0.00  0.73   1.56   2.64
 1986 246    68    33  35.7   0.0  35.7  0.00  1.80  31.3  16.9  18.8  1.80  1.80  0.00  0.72   1.73   2.64
 1986 247    69    34  36.0   0.0  36.0  0.00  1.78  31.7  16.8  19.2  1.78  1.78  0.00  0.72   1.91   2.64
 1986 248    70    35  36.4   0.0  36.4  0.00  1.77  32.0  16.8  19.5  1.77  1.77  0.00  0.72   2.10   2.64
 1986 249    71    36  37.2   0.0  37.2  0.00  1.78  32.9  17.0  20.2  1.78  1.78  0.00  0.72   2.30   2.64
 1986 250    72    37  37.6   0.0  37.6  0.00  1.77  33.3  17.0  20.5  1.77  1.77  0.00  0.72   2.50   2.64
 1986 251    73    38  37.9   0.0  37.9  0.00  1.76  33.7  17.0  20.9  1.76  1.76  0.00  0.72   2.72   2.64
 1986 252    74    39  38.3   0.0  38.3  0.00  1.75  34.1  17.0  21.3  1.75  1.75  0.00  0.72   2.95   2.64
 1986 253    75    40  38.7   0.0  38.7  0.00  1.74  34.5  17.0  21.6  1.74  1.74  0.00  0.72   3.18   2.64
 1986 254    76    41  39.1   0.0  39.1  0.00  1.73  34.9  17.0  22.1  1.73  1.73  0.00  0.72   3.43   2.64
 1986 255    77    42  39.4   0.0  39.4  0.00  1.71  35.2  17.0  22.4  1.71  1.71  0.00  0.72   3.69   2.64
 1986 256    78    43  40.2   0.0  40.2  0.00  1.71  36.0  17.1  23.1  1.71  1.71  0.00  0.72   3.95   2.64
 1986 257    79    44  40.6   0.0  40.6  0.00  1.70  36.5  17.0  23.5  1.70  1.70  0.00  0.72   4.23   2.64
 1986 258    80    45  40.9   0.0  40.9  0.00  1.68  36.8  16.9  24.0  1.68  1.68  0.00  0.72   4.51   2.64
 1986 259    81    46  41.3   0.0  41.3  0.00  1.66  37.3  16.9  24.4  1.66  1.66  0.00  0.72   4.80   2.64
 1986 260    82    47  42.2   0.0  42.2  0.00  1.67  38.2  17.0  25.2  1.67  1.67  0.00  0.73   5.11   2.64
 1986 261    83    48  42.6   0.0  42.6  0.00  1.66  38.7  17.0  25.6  1.66  1.66  0.00  0.73   5.42   2.64
 1986 262    84    49  43.1   0.0  43.1  0.00  1.65  39.1  17.0  26.1  1.65  1.65  0.00  0.73   5.74   2.64
 1986 263    85    50  44.3   0.0  44.3  0.00  1.66  40.4  17.2  27.0  1.66  1.66  0.00  0.74   6.08   2.64
 1986 264    86    51  44.6   0.0  44.6  0.00  1.64  40.7  17.1  27.5  1.64  1.64  0.00  0.73   6.42   2.64
 1986 265    87    52  45.1   0.0  45.1  0.00  1.64  41.2  17.1  27.9  1.64  1.64  0.00  0.74   6.77   2.64
 1986 266    88    53  46.0   0.0  46.0  0.00  1.65  42.2  17.3  28.7  1.65  1.65  0.00  0.74   7.14   2.64
 1986 267    89    54  46.5   0.0  46.5  0.00  1.64  42.7  17.3  29.2  1.64  1.64  0.00  0.75   7.51   2.64
 1986 268    90    55  47.1   0.0  47.1  0.00  1.63  43.4  17.4  29.8  1.63  1.63  0.00  0.75   7.89   2.64
 1986 269    91    56  47.6   0.0  47.6  0.00  1.61  43.9  17.3  30.3  1.61  1.61  0.00  0.75   8.28   2.64
 1986 270    92    57  48.1   0.0  48.1  0.00  1.60  44.4  17.3  30.8  1.60  1.60  0.00  0.75   8.68   2.64
 1986 271    93    58  49.1   0.0  49.1  0.00  1.60  45.4  17.4  31.6  1.60  1.60  0.00  0.75   9.10   2.64
 1986 272    94    59  49.4   0.0  49.4  0.00  1.59  45.8  17.4  32.0  1.59  1.59  0.00  0.76   9.52   2.64
 1986 273    95    60  49.9   0.0  49.9  0.00  1.59  46.3  17.4  32.5  1.59  1.59  0.00  0.76   9.95   2.64
 1986 274    96    61  50.3   0.0  50.3  0.00  1.57  46.7  17.4  32.9  1.57  1.57  0.00  0.76  10.39   2.64
 1986 275    97    62  50.3   0.0  50.3  0.00  1.55  46.7  17.2  33.1  1.55  1.55  0.00  0.76  10.85   2.64
 1986 276    98    63  50.3   0.0  50.3  0.00  1.53  46.7  17.0  33.3  1.53  1.53  0.00  0.75  11.31   2.64
 1986 277    99    64  50.3   0.0  50.3  0.00  1.51  46.7  16.9  33.4  1.51  1.51  0.00  0.75  11.78   2.64
 1986 278   100    65  50.3   0.0  50.3  0.00  1.48  46.7  16.7  33.6  1.48  1.48  0.00  0.75  12.26   2.64
 1986 279   101    66  50.3   0.0  50.3  0.00  1.46  46.7  16.5  33.8  1.46  1.46  0.00  0.74  12.76   2.64
 1986 280   102    67  50.3   0.0  50.3  0.00  1.44  46.7  16.4  33.9  1.44  1.44  0.00  0.74  13.26   2.64
 1986 281   103    68  50.3   0.0  50.3  0.00  1.41  46.7  16.2  34.1  1.41  1.41  0.00  0.74  13.77   2.64
 1986 282   104    69  50.3   0.0  50.3  0.00  1.40  46.7  16.1  34.2  1.40  1.40  0.00  0.73  14.29   2.64
 1986 283   105    70  50.3   0.0  50.3  0.00  1.38  46.7  15.9  34.4  1.38  1.38  0.00  0.73  14.82   2.64
 1986 284   106    71  50.3   0.0  50.3  0.00  1.36  46.7  15.8  34.5  1.36  1.36  0.00  0.73  15.36   2.64
 1986 285   107    72  50.3   0.0  50.3  0.00  1.35  46.7  15.7  34.6  1.35  1.35  0.00  0.73  15.91   2.64
 1986 286   108    73  50.3   0.0  50.3  0.00  1.34  46.7  15.5  34.8  1.34  1.34  0.00  0.73  16.46   2.64
 1986 287   109    74  50.3   0.0  50.3  0.00  1.32  46.7  15.4  34.9  1.32  1.32  0.00  0.73  17.03   2.64
 1986 288   110    75  50.3   0.0  50.3  0.00  1.31  46.7  15.3  35.0  1.31  1.31  0.00  0.73  17.61   2.64
 1986 289   111    76  50.3   0.0  50.3  0.00  1.30  46.7  15.1  35.2  1.30  1.30  0.00  0.73  18.19   2.64
 1986 290   112    77  50.3   0.0  50.3  0.00  1.28  46.7  15.0  35.3  1.28  1.28  0.00  0.73  18.78   2.64
 1986 291   113    78  50.3   0.0  50.3  0.00  1.27  46.7  14.9  35.4  1.27  1.27  0.00  0.73  19.39   2.64
 1986 292   114    79  50.3   0.0  50.3  0.00  1.26  46.7  14.7  35.5  1.26  1.26  0.00  0.73  20.01   2.64
 1986 293   115    80  50.3   0.0  50.3  0.00  1.25  46.7  14.6  35.7  1.25  1.25  0.00  0.72  20.64   2.64
 1986 294   116    81  50.3   0.0  50.3  0.00  1.23  46.7  14.5  35.8  1.23  1.23  0.00  0.72  21.26   2.64
 1986 295   117    82  50.9   0.0  50.9  0.00  1.24  47.4  14.6  36.4  1.24  1.24  0.00  0.74  21.89   2.64
 1986 296   118    83  50.9   0.0  50.9  0.00  1.23  47.4  14.4  36.5  1.23  1.23  0.00  0.74  22.52   2.64
 1986 297   119    84  50.9   0.0  50.9  0.00  1.22  47.4  14.3  36.6  1.22  1.22  0.00  0.74  23.15   2.64
 1986 298   120    85  50.9   0.0  50.9  0.00  1.21  47.4  14.2  36.7  1.21  1.21  0.00  0.74  23.78   2.64
 1986 299   121    86  50.9   0.0  50.9  0.00  1.20  47.4  14.1  36.8  1.20  1.20  0.00  0.74  24.41   2.64
 1986 300   122    87  50.9   9.3  41.6  0.59  1.53  47.4  17.9  23.8  1.53  1.53  0.00  0.74  25.04   2.64
 1986 301   123    88  50.9  10.4  40.5  0.62  1.53  47.4  17.7  22.7  1.53  1.53  0.00  0.74  25.68   2.64
 1986 302   124    89  50.9  11.5  39.4  0.64  1.53  47.4  17.6  21.8  1.53  1.53  0.00  0.74  26.31   2.64
 1986 303   125    90  50.9  12.6  38.3  0.66  1.51  47.4  17.3  21.0  1.51  1.51  0.00  0.74  26.94   2.64
 1986 304   126    91  50.9  13.7  37.2  0.68  1.49  47.4  17.0  20.2  1.49  1.49  0.00  0.74  27.58   2.64
 1986 305   127    92  50.9  14.8  36.1  0.70  1.48  47.4  16.7  19.4  1.48  1.48  0.00  0.74  28.21   2.64
 1986 306   128    93  50.9  16.0  34.9  0.72  1.45  47.4  16.3  18.6  1.45  1.45  0.00  0.74  28.85   2.64
 1986 307   129    94  50.9  17.1  33.8  0.74  1.43  47.4  16.0  17.8  1.43  1.43  0.00  0.74  29.48   2.64
 1986 308   130    95  50.9  18.2  32.7  0.75  1.41  47.4  15.6  17.1  1.41  1.41  0.00  0.74  30.12   2.64
 1986 309   131    96  50.9  19.4  31.6  0.77  1.38  47.4  15.3  16.3  1.38  1.38  0.00  0.74  30.76   2.64
 1986 310   132    97  50.9  20.5  30.4  0.79  1.36  47.4  14.9  15.5  1.36  1.36  0.00  0.74  31.40   2.64
 1986 311   133    98  50.9  21.6  29.3  0.80  1.33  47.4  14.5  14.7  1.33  1.33  0.00  0.74  32.03   2.64
 1986 312   134    99  50.9  22.8  28.1  0.82  1.30  47.4  14.2  14.0  1.30  1.30  0.00  0.75  32.67   2.64
 1986 313   135   100  50.9  23.9  27.0  0.83  1.28  47.4  13.8  13.2  1.28  1.28  0.00  0.75  33.31   2.64
 1986 314   136   101  50.9  25.0  26.0  0.85  1.25  47.4  13.4  12.6  1.25  1.25  0.00  0.75  33.95   2.64
 1986 315   137   102  50.9  26.0  24.9  0.86  1.22  47.4  13.0  11.9  1.22  1.22  0.00  0.75  34.59   2.64
 1986 316   138   103  50.9  27.1  23.8  0.88  1.20  47.4  12.7  11.1  1.20  1.20  0.00  0.76  35.23   2.64
 1986 317   139   104  50.9  28.2  22.7  0.89  1.17  47.4  12.3  10.4  1.17  1.17  0.00  0.76  35.87   2.64
 1986 318   140   105  50.9  29.3  21.6  0.90  1.14  47.4  12.0   9.6  1.14  1.14  0.00  0.77  36.51   2.64
 1986 319   141   106  50.9  30.4  20.5  0.92  1.11  47.4  11.6   8.9  1.11  1.11  0.00  0.77  37.15   2.64
 1986 320   142   107  50.9  30.9  20.0  0.92  1.09  47.4  11.3   8.7  1.09  1.09  0.00  0.77  37.79   2.64
 1986 321   143   108  50.9  30.9  20.0  0.92  1.09  47.4  11.3   8.7  1.09  1.09  0.00  0.77  37.79   2.64
 1986 322   144   109  50.9  30.9  20.0  0.92  1.09  47.4  11.3   8.7  1.09  1.09  0.00  0.77  37.79   2.64

*DSSAT Cropping System Model Ver. 4.6.1.000 -release      DEC 02, 2018; 12:33:07
                                                                                
*RUN   2        : 87_01                     RICER046 SSKT0001    2              
 MODEL          : RICER046 - Rice                                               
 EXPERIMENT     : SSKT0001 RI mulation, Thailand                                
 DATA PATH      : C:\DSSAT46\Rice\                                              
 TREATMENT  2   : 87_01                     RICER046                            
  
@YEAR DOY   DAS   DAP  CNAD  GNAD  VNAD  GN%D  VN%D  NUPC  LNAD  SNAD  LN%D  SN%D  SHND  RN%D  SNN0C  SNN1C                                 
 1987 213    35     0   9.3   0.0   9.3  0.00  3.29  49.1   8.4   0.9  3.29  3.29  0.00  0.62   0.00   0.00
 1987 214    36     1  10.5   0.0  10.5  0.00  3.69  50.7   9.5   1.0  3.69  3.69  0.00  0.96   0.00   0.00
 1987 215    37     2  11.2   0.0  11.2  0.00  3.95  52.2  10.1   1.1  3.95  3.95  0.00  1.46   0.01   0.00
 1987 216    38     3  11.2   0.0  11.2  0.00  3.94  52.2  10.1   1.1  3.94  3.94  0.00  1.36   0.02   0.15
 1987 217    39     4  11.2   0.0  11.2  0.00  3.94  52.4  10.1   1.1  3.94  3.94  0.00  1.33   0.03   0.31
 1987 218    40     5  11.2   0.0  11.2  0.00  3.92  52.5  10.1   1.1  3.92  3.92  0.00  1.23   0.04   0.48
 1987 219    41     6  11.2   0.0  11.2  0.00  3.91  52.8  10.1   1.1  3.91  3.91  0.00  1.25   0.04   0.65
 1987 220    42     7  11.2   0.0  11.2  0.00  3.55  52.8   9.7   1.5  3.55  3.55  0.00  1.16   0.05   0.85
 1987 221    43     8  11.8   0.0  11.8  0.00  3.45  53.5  10.0   1.9  3.45  3.45  0.00  1.10   0.06   1.05
 1987 222    44     9  12.3   0.0  12.3  0.00  3.23  54.0  10.0   2.3  3.23  3.23  0.00  1.05   0.07   1.24
 1987 223    45    10  12.6   0.0  12.6  0.00  2.84  54.3   9.8   2.8  2.84  2.84  0.00  1.00   0.08   1.24
 1987 224    46    11  13.8   0.0  13.8  0.00  2.77  55.5  10.2   3.6  2.77  2.77  0.00  0.98   0.10   1.24
 1987 225    47    12  13.9   0.0  13.9  0.00  2.49  55.7   9.7   4.2  2.49  2.49  0.00  0.94   0.12   1.24
 1987 226    48    13  14.1   0.0  14.1  0.00  2.30  55.8   9.4   4.7  2.30  2.30  0.00  0.91   0.15   1.24
 1987 227    49    14  18.4   0.0  18.4  0.00  2.88  60.4  12.0   6.4  2.88  2.88  0.00  0.97   0.18   1.24
 1987 228    50    15  21.8   0.0  21.8  0.00  3.21  63.9  13.9   7.9  3.21  3.21  0.00  1.01   0.22   1.24
 1987 229    51    16  24.3   0.0  24.3  0.00  3.32  66.5  15.3   8.9  3.32  3.32  0.00  1.02   0.26   1.24
 1987 230    52    17  25.9   0.0  25.9  0.00  3.28  68.3  16.2   9.7  3.28  3.28  0.00  1.02   0.31   1.24
 1987 231    53    18  27.0   0.0  27.0  0.00  3.02  69.5  16.6  10.5  3.02  3.02  0.00  0.98   0.36   1.24
 1987 232    54    19  27.9   0.0  27.9  0.00  2.82  70.5  16.9  11.0  2.82  2.82  0.00  0.94   0.42   1.24
 1987 233    55    20  28.6   0.0  28.6  0.00  2.73  71.2  17.1  11.5  2.73  2.73  0.00  0.93   0.49   1.24
 1987 234    56    21  28.8   0.0  28.8  0.00  2.62  71.4  17.0  11.8  2.62  2.62  0.00  0.91   0.56   1.24
 1987 235    57    22  28.8   0.0  28.8  0.00  2.49  71.4  16.6  12.2  2.49  2.49  0.00  0.88   0.65   1.24
 1987 236    58    23  28.8   0.0  28.8  0.00  2.38  71.4  16.4  12.4  2.38  2.38  0.00  0.86   0.74   1.24
 1987 237    59    24  28.8   0.0  28.8  0.00  2.28  71.4  16.1  12.7  2.28  2.28  0.00  0.84   0.84   1.24
 1987 238    60    25  28.8   0.0  28.8  0.00  2.18  71.4  15.7  13.1  2.18  2.18  0.00  0.82   0.96   1.24
 1987 239    61    26  28.8   0.0  28.8  0.00  2.07  71.4  15.3  13.5  2.07  2.07  0.00  0.80   1.07   1.24
 1987 240    62    27  28.8   0.0  28.8  0.00  1.97  71.4  14.9  13.9  1.97  1.97  0.00  0.78   1.20   1.24
 1987 241    63    28  28.8   0.0  28.8  0.00  1.90  71.4  14.6  14.2  1.90  1.90  0.00  0.76   1.34   1.24
 1987 242    64    29  28.8   0.0  28.8  0.00  1.83  71.4  14.3  14.5  1.83  1.83  0.00  0.75   1.48   1.24
 1987 243    65    30  28.8   0.0  28.8  0.00  1.79  71.4  14.1  14.7  1.79  1.79  0.00  0.74   1.63   1.24
 1987 244    66    31  28.8   0.0  28.8  0.00  1.75  71.4  13.9  14.9  1.75  1.75  0.00  0.73   1.79   1.24
 1987 245    67    32  28.8   0.0  28.8  0.00  1.72  71.4  13.7  15.1  1.72  1.72  0.00  0.73   1.95   1.24
 1987 246    68    33  28.8   0.0  28.8  0.00  1.69  71.4  13.5  15.3  1.69  1.69  0.00  0.72   2.12   1.24
 1987 247    69    34  28.8   0.0  28.8  0.00  1.66  71.4  13.4  15.4  1.66  1.66  0.00  0.72   2.30   1.24
 1987 248    70    35  28.8   0.0  28.8  0.00  1.63  71.4  13.2  15.6  1.63  1.63  0.00  0.72   2.49   1.24
 1987 249    71    36  28.8   0.0  28.8  0.00  1.62  71.4  13.1  15.7  1.62  1.62  0.00  0.72   2.68   1.24
 1987 250    72    37  28.8   0.0  28.8  0.00  1.60  71.4  13.0  15.8  1.60  1.60  0.00  0.72   2.88   1.24
 1987 251    73    38  28.8   0.0  28.8  0.00  1.57  71.4  12.9  15.9  1.57  1.57  0.00  0.71   3.09   1.24
 1987 252    74    39  28.8   0.0  28.8  0.00  1.56  71.4  12.8  16.0  1.56  1.56  0.00  0.71   3.31   1.24
 1987 253    75    40  28.8   0.0  28.8  0.00  1.54  71.4  12.7  16.1  1.54  1.54  0.00  0.72   3.53   1.24
 1987 254    76    41  28.8   0.0  28.8  0.00  1.52  71.4  12.6  16.2  1.52  1.52  0.00  0.71   3.76   1.24
 1987 255    77    42  28.8   0.0  28.8  0.00  1.50  71.4  12.4  16.4  1.50  1.50  0.00  0.71   3.99   1.24
 1987 256    78    43  28.8   0.0  28.8  0.00  1.49  71.4  12.3  16.5  1.49  1.49  0.00  0.71   4.24   1.24
 1987 257    79    44  28.8   0.0  28.8  0.00  1.47  71.4  12.2  16.6  1.47  1.47  0.00  0.71   4.49   1.24
 1987 258    80    45  28.8   0.0  28.8  0.00  1.45  71.4  12.1  16.7  1.45  1.45  0.00  0.71   4.74   1.24
 1987 259    81    46  29.3   0.0  29.3  0.00  1.46  71.9  12.2  17.1  1.46  1.46  0.00  0.72   5.01   1.24
 1987 260    82    47  29.3   0.0  29.3  0.00  1.45  71.9  12.1  17.2  1.45  1.45  0.00  0.72   5.27   1.24
 1987 261    83    48  29.3   0.0  29.3  0.00  1.44  71.9  12.0  17.3  1.44  1.44  0.00  0.72   5.55   1.24
 1987 262    84    49  29.3   0.0  29.3  0.00  1.43  71.9  11.9  17.3  1.43  1.43  0.00  0.73   5.83   1.24
 1987 263    85    50  29.3   0.0  29.3  0.00  1.42  71.9  11.8  17.4  1.42  1.42  0.00  0.73   6.12   1.24
 1987 264    86    51  29.3   0.0  29.3  0.00  1.41  72.0  11.8  17.6  1.41  1.41  0.00  0.73   6.42   1.24
 1987 265    87    52  29.5   0.0  29.5  0.00  1.40  72.2  11.7  17.8  1.40  1.40  0.00  0.74   6.72   1.24
 1987 266    88    53  30.1   0.0  30.1  0.00  1.42  72.7  11.9  18.2  1.42  1.42  0.00  0.75   7.03   1.24
 1987 267    89    54  30.3   0.0  30.3  0.00  1.42  72.9  11.9  18.4  1.42  1.42  0.00  0.75   7.34   1.24
 1987 268    90    55  30.5   0.0  30.5  0.00  1.41  73.2  11.8  18.7  1.41  1.41  0.00  0.75   7.67   1.24
 1987 269    91    56  30.7   0.0  30.7  0.00  1.41  73.4  11.8  18.9  1.41  1.41  0.00  0.76   7.99   1.24
 1987 270    92    57  30.9   0.0  30.9  0.00  1.40  73.6  11.8  19.1  1.40  1.40  0.00  0.76   8.33   1.24
 1987 271    93    58  31.1   0.0  31.1  0.00  1.40  73.8  11.8  19.3  1.40  1.40  0.00  0.76   8.67   1.24
 1987 272    94    59  31.3   0.0  31.3  0.00  1.39  74.0  11.7  19.6  1.39  1.39  0.00  0.77   9.02   1.24
 1987 273    95    60  31.5   0.0  31.5  0.00  1.38  74.2  11.7  19.8  1.38  1.38  0.00  0.77   9.37   1.24
 1987 274    96    61  31.6   0.0  31.6  0.00  1.37  74.3  11.6  20.0  1.37  1.37  0.00  0.77   9.74   1.24
 1987 275    97    62  31.6   0.0  31.6  0.00  1.36  74.4  11.5  20.1  1.36  1.36  0.00  0.77  10.10   1.24
 1987 276    98    63  31.7   0.0  31.7  0.00  1.35  74.5  11.5  20.2  1.35  1.35  0.00  0.77  10.48   1.24
 1987 277    99    64  31.8   0.0  31.8  0.00  1.34  74.5  11.4  20.4  1.34  1.34  0.00  0.78  10.86   1.24
 1987 278   100    65  31.8   0.0  31.8  0.00  1.33  74.5  11.3  20.5  1.33  1.33  0.00  0.78  11.24   1.24
 1987 279   101    66  31.8   0.0  31.8  0.00  1.32  74.6  11.2  20.6  1.32  1.32  0.00  0.78  11.64   1.24
 1987 280   102    67  31.9   0.0  31.9  0.00  1.31  74.6  11.2  20.7  1.31  1.31  0.00  0.78  12.04   1.24
 1987 281   103    68  31.9   0.0  31.9  0.00  1.30  74.7  11.1  20.8  1.30  1.30  0.00  0.78  12.44   1.24
 1987 282   104    69  32.0   0.0  32.0  0.00  1.29  74.7  11.1  20.9  1.29  1.29  0.00  0.79  12.85   1.24
 1987 283   105    70  32.0   0.0  32.0  0.00  1.28  74.8  11.0  21.1  1.28  1.28  0.00  0.79  13.27   1.24
 1987 284   106    71  32.2   0.0  32.2  0.00  1.28  75.0  11.0  21.2  1.28  1.28  0.00  0.79  13.70   1.24
 1987 285   107    72  32.4   0.0  32.4  0.00  1.28  75.2  11.0  21.5  1.28  1.28  0.00  0.80  14.13   1.24
 1987 286   108    73  32.5   0.0  32.5  0.00  1.27  75.3  10.9  21.6  1.27  1.27  0.00  0.80  14.57   1.24
 1987 287   109    74  32.6   0.0  32.6  0.00  1.27  75.4  10.9  21.7  1.27  1.27  0.00  0.80  15.02   1.24
 1987 288   110    75  32.6   0.0  32.6  0.00  1.26  75.4  10.8  21.8  1.26  1.26  0.00  0.81  15.47   1.24
 1987 289   111    76  32.6   0.0  32.6  0.00  1.25  75.4  10.7  21.9  1.25  1.25  0.00  0.81  15.94   1.24
 1987 290   112    77  32.6   0.0  32.6  0.00  1.24  75.4  10.7  22.0  1.24  1.24  0.00  0.81  16.40   1.24
 1987 291   113    78  32.6   0.0  32.6  0.00  1.24  75.4  10.6  22.0  1.24  1.24  0.00  0.82  16.88   1.24
 1987 292   114    79  32.6   0.0  32.6  0.00  1.23  75.4  10.6  22.1  1.23  1.23  0.00  0.82  17.36   1.24
 1987 293   115    80  32.6   0.0  32.6  0.00  1.22  75.4  10.5  22.1  1.22  1.22  0.00  0.82  17.84   1.24
 1987 294   116    81  32.6   0.0  32.6  0.00  1.22  75.4  10.5  22.2  1.22  1.22  0.00  0.83  18.32   1.24
 1987 295   117    82  33.3   0.0  33.3  0.00  1.24  76.2  10.6  22.7  1.24  1.24  0.00  0.84  18.80   1.24
 1987 296   118    83  33.6   0.0  33.6  0.00  1.24  76.5  10.7  22.9  1.24  1.24  0.00  0.85  19.28   1.24
 1987 297   119    84  33.9   0.0  33.9  0.00  1.24  76.8  10.7  23.2  1.24  1.24  0.00  0.86  19.76   1.24
 1987 298   120    85  34.2   0.0  34.2  0.00  1.24  77.1  10.7  23.4  1.24  1.24  0.00  0.87  20.24   1.24
 1987 299   121    86  34.8   5.8  29.0  0.61  1.60  77.9  13.7  15.3  1.60  1.60  0.00  0.91  20.72   1.24
 1987 300   122    87  34.8   5.9  28.9  0.61  1.57  78.3  13.5  15.4  1.57  1.57  0.00  0.99  21.20   1.55
 1987 301   123    88  34.8   6.0  28.8  0.62  1.55  78.3  13.3  15.5  1.55  1.55  0.00  1.01  21.68   1.88
 1987 302   124    89  34.8   6.1  28.7  0.62  1.53  78.3  13.2  15.5  1.53  1.53  0.00  1.01  22.17   2.22
 1987 303   125    90  34.8   6.8  28.0  0.64  1.54  78.3  13.1  14.8  1.54  1.54  0.00  1.02  22.65   2.55
 1987 304   126    91  34.8   7.6  27.2  0.66  1.56  78.3  13.1  14.1  1.56  1.56  0.00  1.02  23.13   2.89
 1987 305   127    92  34.8   8.3  26.5  0.68  1.57  78.3  13.0  13.4  1.57  1.57  0.00  1.03  23.62   3.22
 1987 306   128    93  34.8   9.0  25.7  0.70  1.58  78.3  13.0  12.8  1.58  1.58  0.00  1.03  24.10   3.56
 1987 307   129    94  34.8   9.8  25.0  0.71  1.58  78.3  12.9  12.1  1.58  1.58  0.00  1.04  24.58   3.89
 1987 308   130    95  34.8  10.5  24.3  0.73  1.59  78.3  12.8  11.5  1.59  1.59  0.00  1.04  25.06   4.23
 1987 309   131    96  34.8  11.2  23.6  0.75  1.59  78.3  12.7  10.9  1.59  1.59  0.00  1.05  25.55   4.56
 1987 310   132    97  34.8  11.9  22.9  0.76  1.59  78.3  12.6  10.2  1.59  1.59  0.00  1.05  26.03   4.90
 1987 311   133    98  34.8  12.6  22.1  0.78  1.59  78.3  12.5   9.6  1.59  1.59  0.00  1.06  26.52   5.23
 1987 312   134    99  34.8  13.3  21.4  0.79  1.59  78.3  12.4   9.0  1.59  1.59  0.00  1.07  27.00   5.57
 1987 313   135   100  34.8  14.0  20.7  0.81  1.59  78.3  12.3   8.4  1.59  1.59  0.00  1.07  27.48   5.90
 1987 314   136   101  34.8  14.6  20.2  0.82  1.55  78.3  12.4   7.7  1.55  1.55  0.00  1.08  27.97   6.24
 1987 315   137   102  34.8  14.8  19.9  0.83  1.54  78.3  12.3   7.7  1.54  1.54  0.00  1.09  28.45   6.57
 1987 316   138   103  34.8  15.0  19.7  0.83  1.52  78.3  12.1   7.6  1.52  1.52  0.00  1.10  28.94   6.91
 1987 317   139   104  34.8  15.2  19.5  0.84  1.51  78.3  12.0   7.5  1.51  1.51  0.00  1.10  29.42   7.24
 1987 318   140   105  34.8  15.4  19.4  0.84  1.49  78.3  11.9   7.4  1.49  1.49  0.00  1.11  29.91   7.58
 1987 319   141   106  34.8  15.6  19.2  0.85  1.48  78.3  11.8   7.4  1.48  1.48  0.00  1.12  30.39   7.91
 1987 320   142   107  34.8  15.6  19.2  0.85  1.48  78.3  11.8   7.4  1.48  1.48  0.00  1.12  30.39   7.91
 1987 321   143   108  34.8  15.6  19.2  0.85  1.48  78.3  11.8   7.4  1.48  1.48  0.00  1.12  30.39   7.91

*DSSAT Cropping System Model Ver. 4.6.1.000 -release      DEC 02, 2018; 12:33:07
                                                                                
*RUN   3        : 88_01                     RICER046 SSKT0001    3              
 MODEL          : RICER046 - Rice                                               
 EXPERIMENT     : SSKT0001 RI mulation, Thailand                                
 DATA PATH      : C:\DSSAT46\Rice\                                              
 TREATMENT  3   : 88_01                     RICER046                            
  
@YEAR DOY   DAS   DAP  CNAD  GNAD  VNAD  GN%D  VN%D  NUPC  LNAD  SNAD  LN%D  SN%D  SHND  RN%D  SNN0C  SNN1C                                 
 1988 213    35     0   9.7   0.0   9.7  0.00  3.40  80.4   8.7   1.0  3.40  3.40  0.00  0.68   0.00   0.00
 1988 214    36     1  11.1   0.0  11.1  0.00  3.91  82.4  10.0   1.1  3.91  3.91  0.00  1.11   0.00   0.00
 1988 215    37     2  11.3   0.0  11.3  0.00  3.98  82.9  10.2   1.1  3.98  3.98  0.00  1.21   0.01   0.00
 1988 216    38     3  11.3   0.0  11.3  0.00  3.97  83.0  10.2   1.1  3.97  3.97  0.00  1.21   0.01   0.13
 1988 217    39     4  11.3   0.0  11.3  0.00  3.96  83.4  10.2   1.1  3.96  3.96  0.00  1.33   0.02   0.26
 1988 218    40     5  11.3   0.0  11.3  0.00  3.94  83.5  10.2   1.1  3.94  3.94  0.00  1.25   0.02   0.43
 1988 219    41     6  11.3   0.0  11.3  0.00  3.92  83.6  10.2   1.1  3.92  3.92  0.00  1.18   0.03   0.60
 1988 220    42     7  11.3   0.0  11.3  0.00  3.77  83.7  10.0   1.3  3.77  3.77  0.00  1.14   0.03   0.78
 1988 221    43     8  11.3   0.0  11.3  0.00  3.63  83.8   9.9   1.4  3.63  3.63  0.00  1.11   0.04   0.96
 1988 222    44     9  11.4   0.0  11.4  0.00  3.50  83.9   9.8   1.6  3.50  3.50  0.00  1.07   0.04   1.15
 1988 223    45    10  12.0   0.0  12.0  0.00  3.49  84.7  10.1   1.9  3.49  3.49  0.00  1.07   0.04   1.34
 1988 224    46    11  13.1   0.0  13.1  0.00  3.40  85.8  10.6   2.5  3.40  3.40  0.00  1.03   0.05   1.54
 1988 225    47    12  14.6   0.0  14.6  0.00  3.39  87.4  11.5   3.2  3.39  3.39  0.00  1.02   0.05   1.75
 1988 226    48    13  17.0   0.0  17.0  0.00  3.39  90.0  12.7   4.2  3.39  3.39  0.00  1.04   0.06   1.95
 1988 227    49    14  19.1   0.0  19.1  0.00  3.37  92.2  13.9   5.2  3.37  3.37  0.00  1.03   0.06   2.17
 1988 228    50    15  22.1   0.0  22.1  0.00  3.38  95.5  15.5   6.6  3.38  3.38  0.00  1.04   0.07   2.40
 1988 229    51    16  25.2   0.0  25.2  0.00  3.37  98.8  17.1   8.0  3.37  3.37  0.00  1.04   0.07   2.65
 1988 230    52    17  27.0   0.0  27.0  0.00  3.17 100.7  17.9   9.0  3.17  3.17  0.00  1.01   0.08   2.91
 1988 231    53    18  27.8   0.0  27.8  0.00  2.87 101.7  18.1   9.8  2.87  2.87  0.00  0.96   0.09   2.91
 1988 232    54    19  28.1   0.0  28.1  0.00  2.65 102.0  17.7  10.4  2.65  2.65  0.00  0.92   0.12   2.91
 1988 233    55    20  28.4   0.0  28.4  0.00  2.51 102.3  17.5  10.9  2.51  2.51  0.00  0.89   0.15   2.91
 1988 234    56    21  28.7   0.0  28.7  0.00  2.35 102.6  17.1  11.6  2.35  2.35  0.00  0.86   0.19   2.91
 1988 235    57    22  28.9   0.0  28.9  0.00  2.21 102.8  16.7  12.3  2.21  2.21  0.00  0.83   0.24   2.91
 1988 236    58    23  29.1   0.0  29.1  0.00  2.11 103.0  16.3  12.8  2.11  2.11  0.00  0.81   0.30   2.91
 1988 237    59    24  31.9   0.0  31.9  0.00  2.20 106.0  17.4  14.5  2.20  2.20  0.00  0.82   0.37   2.91
 1988 238    60    25  33.6   0.0  33.6  0.00  2.22 107.8  18.0  15.7  2.22  2.22  0.00  0.83   0.45   2.91
 1988 239    61    26  34.2   0.0  34.2  0.00  2.15 108.5  17.8  16.4  2.15  2.15  0.00  0.81   0.54   2.91
 1988 240    62    27  34.3   0.0  34.3  0.00  2.06 108.5  17.5  16.8  2.06  2.06  0.00  0.79   0.64   2.91
 1988 241    63    28  34.4   0.0  34.4  0.00  2.01 108.7  17.3  17.2  2.01  2.01  0.00  0.78   0.75   2.91
 1988 242    64    29  34.6   0.0  34.6  0.00  1.94 108.9  17.0  17.6  1.94  1.94  0.00  0.76   0.87   2.91
 1988 243    65    30  34.6   0.0  34.6  0.00  1.88 108.9  16.7  17.9  1.88  1.88  0.00  0.75   0.99   2.91
 1988 244    66    31  34.8   0.0  34.8  0.00  1.85 109.1  16.6  18.2  1.85  1.85  0.00  0.75   1.13   2.91
 1988 245    67    32  35.3   0.0  35.3  0.00  1.82 109.7  16.5  18.8  1.82  1.82  0.00  0.74   1.27   2.91
 1988 246    68    33  35.4   0.0  35.4  0.00  1.77 109.7  16.2  19.1  1.77  1.77  0.00  0.73   1.43   2.91
 1988 247    69    34  35.4   0.0  35.4  0.00  1.73 109.7  16.0  19.4  1.73  1.73  0.00  0.72   1.59   2.91
 1988 248    70    35  35.4   0.0  35.4  0.00  1.69 109.7  15.7  19.7  1.69  1.69  0.00  0.71   1.76   2.91
 1988 249    71    36  35.4   0.0  35.4  0.00  1.66 109.7  15.5  19.9  1.66  1.66  0.00  0.71   1.94   2.91
 1988 250    72    37  35.4   0.0  35.4  0.00  1.64 109.8  15.3  20.1  1.64  1.64  0.00  0.71   2.13   2.91
 1988 251    73    38  35.5   0.0  35.5  0.00  1.63 109.8  15.2  20.3  1.63  1.63  0.00  0.71   2.33   2.91
 1988 252    74    39  36.3   0.0  36.3  0.00  1.65 110.7  15.4  20.9  1.65  1.65  0.00  0.72   2.53   2.91
 1988 253    75    40  36.4   0.0  36.4  0.00  1.63 110.7  15.3  21.1  1.63  1.63  0.00  0.72   2.75   2.91
 1988 254    76    41  37.0   0.0  37.0  0.00  1.63 111.4  15.4  21.6  1.63  1.63  0.00  0.72   2.97   2.91
 1988 255    77    42  37.0   0.0  37.0  0.00  1.61 111.4  15.3  21.7  1.61  1.61  0.00  0.72   3.20   2.91
 1988 256    78    43  37.0   0.0  37.0  0.00  1.59 111.4  15.1  21.9  1.59  1.59  0.00  0.72   3.44   2.91
 1988 257    79    44  37.1   0.0  37.1  0.00  1.59 111.5  15.1  22.0  1.59  1.59  0.00  0.72   3.69   2.91
 1988 258    80    45  38.1   0.0  38.1  0.00  1.61 112.6  15.4  22.8  1.61  1.61  0.00  0.72   3.95   2.91
 1988 259    81    46  38.5   0.0  38.5  0.00  1.61 113.0  15.4  23.1  1.61  1.61  0.00  0.73   4.21   2.91
 1988 260    82    47  38.5   0.0  38.5  0.00  1.59 113.0  15.3  23.3  1.59  1.59  0.00  0.73   4.49   2.91
 1988 261    83    48  38.5   0.0  38.5  0.00  1.57 113.0  15.1  23.4  1.57  1.57  0.00  0.72   4.77   2.91
 1988 262    84    49  38.6   0.0  38.6  0.00  1.55 113.0  15.0  23.5  1.55  1.55  0.00  0.72   5.06   2.91
 1988 263    85    50  38.8   0.0  38.8  0.00  1.55 113.3  15.0  23.8  1.55  1.55  0.00  0.72   5.36   2.91
 1988 264    86    51  39.3   0.0  39.3  0.00  1.55 113.9  15.1  24.3  1.55  1.55  0.00  0.73   5.67   2.91
 1988 265    87    52  39.6   0.0  39.6  0.00  1.54 114.1  15.0  24.5  1.54  1.54  0.00  0.73   5.99   2.91
 1988 266    88    53  39.6   0.0  39.6  0.00  1.52 114.1  14.9  24.7  1.52  1.52  0.00  0.73   6.31   2.91
 1988 267    89    54  39.6   0.0  39.6  0.00  1.51 114.1  14.8  24.8  1.51  1.51  0.00  0.73   6.65   2.91
 1988 268    90    55  39.9   0.0  39.9  0.00  1.50 114.4  14.7  25.1  1.50  1.50  0.00  0.74   6.99   2.91
 1988 269    91    56  39.9   0.0  39.9  0.00  1.49 114.4  14.6  25.2  1.49  1.49  0.00  0.74   7.34   2.91
 1988 270    92    57  40.1   0.0  40.1  0.00  1.49 114.7  14.6  25.5  1.49  1.49  0.00  0.74   7.70   2.91
 1988 271    93    58  40.1   0.0  40.1  0.00  1.47 114.7  14.5  25.6  1.47  1.47  0.00  0.74   8.06   2.91
 1988 272    94    59  41.3   0.0  41.3  0.00  1.50 115.9  14.8  26.5  1.50  1.50  0.00  0.75   8.44   2.91
 1988 273    95    60  41.3   0.0  41.3  0.00  1.49 115.9  14.7  26.6  1.49  1.49  0.00  0.76   8.82   2.91
 1988 274    96    61  41.5   0.0  41.5  0.00  1.48 116.1  14.7  26.9  1.48  1.48  0.00  0.76   9.21   2.91
 1988 275    97    62  42.1   0.0  42.1  0.00  1.49 116.8  14.8  27.3  1.49  1.49  0.00  0.77   9.61   2.91
 1988 276    98    63  42.3   0.0  42.3  0.00  1.48 117.0  14.7  27.6  1.48  1.48  0.00  0.77  10.02   2.91
 1988 277    99    64  42.3   0.0  42.3  0.00  1.46 117.0  14.6  27.7  1.46  1.46  0.00  0.77  10.44   2.91
 1988 278   100    65  43.1   0.0  43.1  0.00  1.48 117.8  14.8  28.3  1.48  1.48  0.00  0.78  10.86   2.91
 1988 279   101    66  43.1   0.0  43.1  0.00  1.47 117.8  14.7  28.4  1.47  1.47  0.00  0.78  11.30   2.91
 1988 280   102    67  43.1   0.0  43.1  0.00  1.46 117.8  14.6  28.5  1.46  1.46  0.00  0.78  11.74   2.91
 1988 281   103    68  43.1   0.0  43.1  0.00  1.45 117.8  14.5  28.6  1.45  1.45  0.00  0.78  12.19   2.91
 1988 282   104    69  43.4   0.0  43.4  0.00  1.44 118.1  14.5  28.9  1.44  1.44  0.00  0.79  12.65   2.91
 1988 283   105    70  43.7   0.0  43.7  0.00  1.44 118.4  14.5  29.2  1.44  1.44  0.00  0.79  13.12   2.91
 1988 284   106    71  43.9   0.0  43.9  0.00  1.44 118.7  14.5  29.4  1.44  1.44  0.00  0.80  13.59   2.91
 1988 285   107    72  44.1   0.0  44.1  0.00  1.44 118.9  14.5  29.6  1.44  1.44  0.00  0.81  14.08   2.91
 1988 286   108    73  44.1   0.0  44.1  0.00  1.43 118.9  14.5  29.7  1.43  1.43  0.00  0.81  14.57   2.91
 1988 287   109    74  44.1   0.0  44.1  0.00  1.42 118.9  14.4  29.7  1.42  1.42  0.00  0.81  15.07   2.91
 1988 288   110    75  44.1   0.0  44.1  0.00  1.41 118.9  14.3  29.8  1.41  1.41  0.00  0.81  15.58   2.91
 1988 289   111    76  44.7   0.0  44.7  0.00  1.42 119.5  14.4  30.3  1.42  1.42  0.00  0.82  16.10   2.91
 1988 290   112    77  44.8   0.0  44.8  0.00  1.42 119.6  14.4  30.4  1.42  1.42  0.00  0.83  16.63   2.91
 1988 291   113    78  45.1   0.0  45.1  0.00  1.41 119.9  14.4  30.7  1.41  1.41  0.00  0.83  17.17   2.91
 1988 292   114    79  45.4   0.0  45.4  0.00  1.41 120.2  14.4  31.0  1.41  1.41  0.00  0.83  17.72   2.91
 1988 293   115    80  45.6   0.0  45.6  0.00  1.41 120.4  14.4  31.3  1.41  1.41  0.00  0.84  18.28   2.91
 1988 294   116    81  45.9   0.0  45.9  0.00  1.40 120.7  14.3  31.5  1.40  1.40  0.00  0.84  18.84   2.91
 1988 295   117    82  46.6   0.0  46.6  0.00  1.41 121.5  14.5  32.1  1.41  1.41  0.00  0.85  19.42   2.91
 1988 296   118    83  46.8   0.0  46.8  0.00  1.41 121.7  14.5  32.3  1.41  1.41  0.00  0.86  20.00   2.91
 1988 297   119    84  47.3   0.0  47.3  0.00  1.42 122.2  14.6  32.7  1.42  1.42  0.00  0.87  20.58   2.91
 1988 298   120    85  47.5   0.0  47.5  0.00  1.42 122.4  14.6  32.9  1.42  1.42  0.00  0.87  21.17   2.91
 1988 299   121    86  47.5   0.0  47.5  0.00  1.41 122.4  14.5  32.9  1.41  1.41  0.00  0.88  21.77   2.91
 1988 300   122    87  47.7   0.0  47.7  0.00  1.41 122.6  14.5  33.1  1.41  1.41  0.00  0.88  22.36   2.91
 1988 301   123    88  48.2   0.0  48.2  0.00  1.41 123.2  14.6  33.6  1.41  1.41  0.00  0.89  22.96   2.91
 1988 302   124    89  48.4   0.0  48.4  0.00  1.41 123.4  14.5  33.8  1.41  1.41  0.00  0.90  23.56   2.91
 1988 303   125    90  48.4   0.0  48.4  0.00  1.40 123.4  14.5  33.9  1.40  1.40  0.00  0.90  24.16   2.91
 1988 304   126    91  48.6   0.0  48.6  0.00  1.40 123.6  14.4  34.1  1.40  1.40  0.00  0.91  24.76   2.91
 1988 305   127    92  48.6   0.0  48.6  0.00  1.39 123.6  14.3  34.2  1.39  1.39  0.00  0.91  25.36   2.91
 1988 306   128    93  48.8   0.0  48.8  0.00  1.39 123.8  14.3  34.5  1.39  1.39  0.00  0.92  25.95   2.91
 1988 307   129    94  49.3   0.0  49.3  0.00  1.39 124.4  14.3  34.9  1.39  1.39  0.00  0.93  26.55   2.91
 1988 308   130    95  49.5  11.7  37.8  0.91  1.65 124.6  17.0  20.8  1.65  1.65  0.00  0.94  27.15   2.91
 1988 309   131    96  49.5  12.6  36.9  0.92  1.65 124.6  16.8  20.0  1.65  1.65  0.00  0.95  27.75   2.91
 1988 310   132    97  49.4  13.5  35.9  0.93  1.64 124.9  16.7  19.3  1.64  1.64  0.00  0.99  28.35   3.29
 1988 311   133    98  49.4  14.4  35.0  0.95  1.64 124.9  16.5  18.5  1.64  1.64  0.00  1.01  28.95   3.68
 1988 312   134    99  49.4  15.2  34.2  0.96  1.64 124.9  16.4  17.8  1.64  1.64  0.00  1.01  29.55   4.08
 1988 313   135   100  49.4  16.1  33.3  0.97  1.64 124.9  16.3  17.0  1.64  1.64  0.00  1.02  30.16   4.48
 1988 314   136   101  49.4  17.0  32.4  0.98  1.64 124.9  16.1  16.2  1.64  1.64  0.00  1.02  30.76   4.88
 1988 315   137   102  49.4  17.9  31.4  0.99  1.63 124.9  15.9  15.5  1.63  1.63  0.00  1.03  31.36   5.27
 1988 316   138   103  49.4  18.8  30.6  1.00  1.62 124.9  15.7  14.9  1.62  1.62  0.00  1.03  31.96   5.67
 1988 317   139   104  49.4  19.7  29.7  1.02  1.61 124.9  15.5  14.2  1.61  1.61  0.00  1.04  32.56   6.07
 1988 318   140   105  49.4  20.6  28.8  1.03  1.60 124.9  15.3  13.5  1.60  1.60  0.00  1.05  33.16   6.47
 1988 319   141   106  49.4  21.5  27.8  1.04  1.59 124.9  15.1  12.7  1.59  1.59  0.00  1.05  33.76   6.86
 1988 320   142   107  49.4  22.5  26.9  1.05  1.59 124.9  15.0  11.9  1.59  1.59  0.00  1.06  34.37   7.26
 1988 321   143   108  49.4  23.5  25.9  1.06  1.59 124.9  14.8  11.1  1.59  1.59  0.00  1.07  34.97   7.66
 1988 322   144   109  49.4  24.4  25.0  1.06  1.58 124.9  14.6  10.4  1.58  1.58  0.00  1.07  35.57   8.06
 1988 323   145   110  49.4  25.4  24.0  1.08  1.57 124.9  14.4   9.6  1.57  1.57  0.00  1.08  36.17   8.45
 1988 324   146   111  49.4  25.6  23.8  1.08  1.56 124.9  14.3   9.5  1.56  1.56  0.00  1.08  36.77   8.85
 1988 325   147   112  49.4  25.9  23.5  1.08  1.54 124.9  14.1   9.4  1.54  1.54  0.00  1.09  37.38   9.25
 1988 326   148   113  49.4  26.1  23.3  1.08  1.52 124.9  14.0   9.3  1.52  1.52  0.00  1.10  37.98   9.65
 1988 327   149   114  49.4  26.4  23.0  1.09  1.51 124.9  13.8   9.2  1.51  1.51  0.00  1.11  38.58  10.04
 1988 328   150   115  49.4  26.6  22.8  1.09  1.49 124.9  13.7   9.1  1.49  1.49  0.00  1.11  39.19  10.44
 1988 329   151   116  49.4  26.8  22.6  1.09  1.48 124.9  13.6   9.1  1.48  1.48  0.00  1.12  39.79  10.84
 1988 330   152   117  49.4  27.0  22.4  1.09  1.47 124.9  13.4   9.0  1.47  1.47  0.00  1.13  40.39  11.24
 1988 331   153   118  49.4  27.2  22.2  1.10  1.45 124.9  13.3   8.9  1.45  1.45  0.00  1.14  41.00  11.63
 1988 332   154   119  49.4  27.4  22.0  1.10  1.44 124.9  13.2   8.8  1.44  1.44  0.00  1.14  41.60  12.03
 1988 333   155   120  49.4  27.4  22.0  1.10  1.44 124.9  13.2   8.8  1.44  1.44  0.00  1.14  41.60  12.03
 1988 334   156   121  49.4  27.4  22.0  1.10  1.44 124.9  13.2   8.8  1.44  1.44  0.00  1.14  41.60  12.03

*DSSAT Cropping System Model Ver. 4.6.1.000 -release      DEC 02, 2018; 12:33:07
                                                                                
*RUN   4        : 89_01                     RICER046 SSKT0001    4              
 MODEL          : RICER046 - Rice                                               
 EXPERIMENT     : SSKT0001 RI mulation, Thailand                                
 DATA PATH      : C:\DSSAT46\Rice\                                              
 TREATMENT  4   : 89_01                     RICER046                            
  
@YEAR DOY   DAS   DAP  CNAD  GNAD  VNAD  GN%D  VN%D  NUPC  LNAD  SNAD  LN%D  SN%D  SHND  RN%D  SNN0C  SNN1C                                 
 1989 213    35     0   9.3   0.0   9.3  0.00  3.27 126.5   8.4   0.9  3.27  3.27  0.00  0.61   0.00   0.00
 1989 214    36     1  10.3   0.0  10.3  0.00  3.64 128.1   9.3   1.0  3.64  3.64  0.00  0.98   0.00   0.00
 1989 215    37     2  11.3   0.0  11.3  0.00  3.97 129.4  10.2   1.1  3.97  3.97  0.00  1.22   0.01   0.00
 1989 216    38     3  11.3   0.0  11.3  0.00  3.95 129.6  10.2   1.1  3.95  3.95  0.00  1.24   0.02   0.13
 1989 217    39     4  11.3   0.0  11.3  0.00  3.94 129.9  10.2   1.1  3.94  3.94  0.00  1.27   0.02   0.27
 1989 218    40     5  11.3   0.0  11.3  0.00  3.92 130.1  10.1   1.1  3.92  3.92  0.00  1.28   0.03   0.43
 1989 219    41     6  11.3   0.0  11.3  0.00  3.90 130.3  10.1   1.1  3.90  3.90  0.00  1.24   0.04   0.61
 1989 220    42     7  11.3   0.0  11.3  0.00  3.76 130.3  10.0   1.3  3.76  3.76  0.00  1.16   0.04   0.80
 1989 221    43     8  11.3   0.0  11.3  0.00  3.61 130.3   9.8   1.4  3.61  3.61  0.00  1.10   0.05   0.99
 1989 222    44     9  11.9   0.0  11.9  0.00  3.43 131.0  10.0   1.9  3.43  3.43  0.00  1.05   0.06   1.19
 1989 223    45    10  13.3   0.0  13.3  0.00  3.40 132.4  10.7   2.6  3.40  3.40  0.00  1.02   0.06   1.38
 1989 224    46    11  15.0   0.0  15.0  0.00  3.39 134.2  11.7   3.3  3.39  3.39  0.00  1.03   0.07   1.57
 1989 225    47    12  17.3   0.0  17.3  0.00  3.39 136.7  12.9   4.4  3.39  3.39  0.00  1.03   0.08   1.78
 1989 226    48    13  19.5   0.0  19.5  0.00  3.38 139.1  14.1   5.4  3.38  3.38  0.00  1.03   0.09   1.99
 1989 227    49    14  21.2   0.0  21.2  0.00  3.27 141.0  15.0   6.3  3.27  3.27  0.00  1.02   0.09   2.22
 1989 228    50    15  22.4   0.0  22.4  0.00  2.98 142.2  15.3   7.1  2.98  2.98  0.00  0.98   0.10   2.22
 1989 229    51    16  23.3   0.0  23.3  0.00  2.69 143.2  15.4   7.9  2.69  2.69  0.00  0.93   0.12   2.22
 1989 230    52    17  24.0   0.0  24.0  0.00  2.52 143.9  15.3   8.7  2.52  2.52  0.00  0.89   0.15   2.22
 1989 231    53    18  24.5   0.0  24.5  0.00  2.39 144.5  15.1   9.4  2.39  2.39  0.00  0.87   0.18   2.22
 1989 232    54    19  24.6   0.0  24.6  0.00  2.27 144.6  14.8   9.9  2.27  2.27  0.00  0.85   0.23   2.22
 1989 233    55    20  25.2   0.0  25.2  0.00  2.18 145.2  14.6  10.5  2.18  2.18  0.00  0.83   0.28   2.22
 1989 234    56    21  25.3   0.0  25.3  0.00  2.08 145.3  14.3  11.0  2.08  2.08  0.00  0.81   0.33   2.22
 1989 235    57    22  25.5   0.0  25.5  0.00  2.02 145.5  14.1  11.3  2.02  2.02  0.00  0.80   0.40   2.22
 1989 236    58    23  26.0   0.0  26.0  0.00  2.00 146.1  14.1  11.9  2.00  2.00  0.00  0.79   0.47   2.22
 1989 237    59    24  26.2   0.0  26.2  0.00  1.93 146.2  13.9  12.3  1.93  1.93  0.00  0.78   0.55   2.22
 1989 238    60    25  26.3   0.0  26.3  0.00  1.87 146.4  13.7  12.7  1.87  1.87  0.00  0.77   0.64   2.22
 1989 239    61    26  26.9   0.0  26.9  0.00  1.84 147.0  13.6  13.2  1.84  1.84  0.00  0.76   0.73   2.22
 1989 240    62    27  27.0   0.0  27.0  0.00  1.81 147.2  13.5  13.5  1.81  1.81  0.00  0.76   0.83   2.22
 1989 241    63    28  27.2   0.0  27.2  0.00  1.78 147.3  13.4  13.8  1.78  1.78  0.00  0.75   0.94   2.22
 1989 242    64    29  27.8   0.0  27.8  0.00  1.77 148.0  13.4  14.4  1.77  1.77  0.00  0.75   1.06   2.22
 1989 243    65    30  28.0   0.0  28.0  0.00  1.74 148.2  13.3  14.7  1.74  1.74  0.00  0.74   1.18   2.22
 1989 244    66    31  28.7   0.0  28.7  0.00  1.74 149.0  13.5  15.3  1.74  1.74  0.00  0.74   1.31   2.22
 1989 245    67    32  29.0   0.0  29.0  0.00  1.72 149.2  13.4  15.6  1.72  1.72  0.00  0.74   1.45   2.22
 1989 246    68    33  29.2   0.0  29.2  0.00  1.70 149.5  13.3  15.9  1.70  1.70  0.00  0.74   1.60   2.22
 1989 247    69    34  29.9   0.0  29.9  0.00  1.70 150.2  13.4  16.5  1.70  1.70  0.00  0.74   1.75   2.22
 1989 248    70    35  30.3   0.0  30.3  0.00  1.69 150.6  13.4  16.9  1.69  1.69  0.00  0.74   1.91   2.22
 1989 249    71    36  30.5   0.0  30.5  0.00  1.68 150.9  13.4  17.2  1.68  1.68  0.00  0.74   2.08   2.22
 1989 250    72    37  31.3   0.0  31.3  0.00  1.70 151.6  13.6  17.6  1.70  1.70  0.00  0.74   2.25   2.22
 1989 251    73    38  31.6   0.0  31.6  0.00  1.69 152.0  13.6  17.9  1.69  1.69  0.00  0.75   2.43   2.22
 1989 252    74    39  31.9   0.0  31.9  0.00  1.68 152.3  13.6  18.3  1.68  1.68  0.00  0.74   2.62   2.22
 1989 253    75    40  32.2   0.0  32.2  0.00  1.67 152.6  13.6  18.6  1.67  1.67  0.00  0.74   2.82   2.22
 1989 254    76    41  32.5   0.0  32.5  0.00  1.66 153.0  13.6  18.9  1.66  1.66  0.00  0.74   3.02   2.22
 1989 255    77    42  33.3   0.0  33.3  0.00  1.68 153.7  13.8  19.5  1.68  1.68  0.00  0.75   3.23   2.22
 1989 256    78    43  33.6   0.0  33.6  0.00  1.67 154.1  13.8  19.8  1.67  1.67  0.00  0.75   3.45   2.22
 1989 257    79    44  33.9   0.0  33.9  0.00  1.67 154.4  13.8  20.1  1.67  1.67  0.00  0.76   3.68   2.22
 1989 258    80    45  34.0   0.0  34.0  0.00  1.65 154.5  13.7  20.3  1.65  1.65  0.00  0.75   3.91   2.22
 1989 259    81    46  34.1   0.0  34.1  0.00  1.62 154.6  13.6  20.5  1.62  1.62  0.00  0.75   4.15   2.22
 1989 260    82    47  34.1   0.0  34.1  0.00  1.60 154.7  13.4  20.7  1.60  1.60  0.00  0.75   4.40   2.22
 1989 261    83    48  34.2   0.0  34.2  0.00  1.59 154.8  13.3  20.9  1.59  1.59  0.00  0.76   4.66   2.22
 1989 262    84    49  34.3   0.0  34.3  0.00  1.57 154.8  13.2  21.1  1.57  1.57  0.00  0.76   4.92   2.22
 1989 263    85    50  34.4   0.0  34.4  0.00  1.55 154.9  13.1  21.2  1.55  1.55  0.00  0.76   5.20   2.22
 1989 264    86    51  34.4   0.0  34.4  0.00  1.53 155.0  13.0  21.4  1.53  1.53  0.00  0.76   5.47   2.22
 1989 265    87    52  34.5   0.0  34.5  0.00  1.52 155.1  12.9  21.6  1.52  1.52  0.00  0.76   5.76   2.22
 1989 266    88    53  34.5   0.0  34.5  0.00  1.50 155.1  12.8  21.7  1.50  1.50  0.00  0.76   6.05   2.22
 1989 267    89    54  34.5   0.0  34.5  0.00  1.48 155.1  12.6  21.9  1.48  1.48  0.00  0.76   6.35   2.22
 1989 268    90    55  34.5   0.0  34.5  0.00  1.46 155.1  12.5  22.0  1.46  1.46  0.00  0.76   6.66   2.22
 1989 269    91    56  34.5   0.0  34.5  0.00  1.44 155.1  12.4  22.1  1.44  1.44  0.00  0.76   6.97   2.22
 1989 270    92    57  34.5   0.0  34.5  0.00  1.42 155.1  12.3  22.2  1.42  1.42  0.00  0.76   7.29   2.22
 1989 271    93    58  34.5   0.0  34.5  0.00  1.40 155.1  12.1  22.4  1.40  1.40  0.00  0.75   7.62   2.22
 1989 272    94    59  34.5   0.0  34.5  0.00  1.39 155.1  12.0  22.5  1.39  1.39  0.00  0.75   7.96   2.22
 1989 273    95    60  34.5   0.0  34.5  0.00  1.37 155.1  11.9  22.6  1.37  1.37  0.00  0.75   8.30   2.22
 1989 274    96    61  34.5   0.0  34.5  0.00  1.36 155.1  11.8  22.7  1.36  1.36  0.00  0.76   8.64   2.22
 1989 275    97    62  34.5   0.0  34.5  0.00  1.34 155.1  11.7  22.8  1.34  1.34  0.00  0.76   9.00   2.22
 1989 276    98    63  35.0   0.0  35.0  0.00  1.35 155.5  11.8  23.2  1.35  1.35  0.00  0.76   9.36   2.22
 1989 277    99    64  35.0   0.0  35.0  0.00  1.33 155.5  11.7  23.3  1.33  1.33  0.00  0.76   9.73   2.22
 1989 278   100    65  35.0   0.0  35.0  0.00  1.33 155.5  11.6  23.4  1.33  1.33  0.00  0.77  10.10   2.22
 1989 279   101    66  35.0   0.0  35.0  0.00  1.31 155.5  11.5  23.5  1.31  1.31  0.00  0.77  10.48   2.22
 1989 280   102    67  35.1   0.0  35.1  0.00  1.31 155.7  11.5  23.7  1.31  1.31  0.00  0.77  10.87   2.22
 1989 281   103    68  35.3   0.0  35.3  0.00  1.30 155.9  11.4  23.9  1.30  1.30  0.00  0.77  11.26   2.22
 1989 282   104    69  36.0   0.0  36.0  0.00  1.31 156.6  11.6  24.4  1.31  1.31  0.00  0.78  11.66   2.22
 1989 283   105    70  36.3   0.0  36.3  0.00  1.31 156.9  11.6  24.7  1.31  1.31  0.00  0.79  12.07   2.22
 1989 284   106    71  36.6   0.0  36.6  0.00  1.32 157.2  11.6  24.9  1.32  1.32  0.00  0.79  12.48   2.22
 1989 285   107    72  36.8   0.0  36.8  0.00  1.32 157.5  11.6  25.2  1.32  1.32  0.00  0.80  12.90   2.22
 1989 286   108    73  37.5   0.0  37.5  0.00  1.33 158.3  11.8  25.8  1.33  1.33  0.00  0.81  13.33   2.22
 1989 287   109    74  37.8   0.0  37.8  0.00  1.33 158.6  11.8  26.0  1.33  1.33  0.00  0.82  13.76   2.22
 1989 288   110    75  38.1   0.0  38.1  0.00  1.33 158.9  11.8  26.3  1.33  1.33  0.00  0.82  14.21   2.22
 1989 289   111    76  38.4   0.0  38.4  0.00  1.33 159.2  11.8  26.6  1.33  1.33  0.00  0.83  14.66   2.22
 1989 290   112    77  38.7   0.0  38.7  0.00  1.33 159.6  11.8  26.9  1.33  1.33  0.00  0.83  15.13   2.22
 1989 291   113    78  39.0   0.0  39.0  0.00  1.33 159.9  11.8  27.2  1.33  1.33  0.00  0.84  15.59   2.22
 1989 292   114    79  39.8   0.0  39.8  0.00  1.35 160.7  12.0  27.8  1.35  1.35  0.00  0.85  16.07   2.22
 1989 293   115    80  40.1   0.0  40.1  0.00  1.35 161.0  12.0  28.1  1.35  1.35  0.00  0.86  16.54   2.22
 1989 294   116    81  40.4   0.0  40.4  0.00  1.35 161.4  12.0  28.4  1.35  1.35  0.00  0.87  17.02   2.22
 1989 295   117    82  40.6   0.0  40.6  0.00  1.34 161.6  12.0  28.6  1.34  1.34  0.00  0.87  17.49   2.22
 1989 296   118    83  40.9   0.0  40.9  0.00  1.34 161.9  11.9  29.0  1.34  1.34  0.00  0.88  17.97   2.22
 1989 297   119    84  41.7   0.0  41.7  0.00  1.35 162.8  12.1  29.6  1.35  1.35  0.00  0.90  18.44   2.22
 1989 298   120    85  41.9   0.0  41.9  0.00  1.35 163.0  12.0  29.9  1.35  1.35  0.00  0.90  18.92   2.22
 1989 299   121    86  42.2   0.0  42.2  0.00  1.34 163.3  12.0  30.2  1.34  1.34  0.00  0.91  19.40   2.22
 1989 300   122    87  42.6   9.1  33.5  0.79  1.65 164.1  14.7  18.8  1.65  1.65  0.00  0.98  19.88   2.22
 1989 301   123    88  42.5   9.1  33.4  0.80  1.62 164.2  14.4  19.0  1.62  1.62  0.00  1.01  20.35   2.58
 1989 302   124    89  42.5   9.1  33.4  0.80  1.60 164.2  14.2  19.2  1.60  1.60  0.00  1.01  20.83   2.96
 1989 303   125    90  42.5   9.2  33.4  0.80  1.57 164.2  14.0  19.4  1.57  1.57  0.00  1.01  21.31   3.34
 1989 304   126    91  42.5  10.0  32.5  0.81  1.58 164.2  13.9  18.6  1.58  1.58  0.00  1.02  21.79   3.71
 1989 305   127    92  42.5  10.9  31.7  0.82  1.58 164.2  13.8  17.9  1.58  1.58  0.00  1.02  22.27   4.09
 1989 306   128    93  42.5  11.7  30.8  0.83  1.58 164.2  13.6  17.2  1.58  1.58  0.00  1.02  22.75   4.46
 1989 307   129    94  42.5  12.6  30.0  0.85  1.58 164.2  13.5  16.5  1.58  1.58  0.00  1.03  23.23   4.84
 1989 308   130    95  42.5  13.4  29.1  0.85  1.58 164.2  13.4  15.7  1.58  1.58  0.00  1.03  23.71   5.22
 1989 309   131    96  42.5  14.3  28.3  0.86  1.59 164.2  13.3  15.0  1.59  1.59  0.00  1.04  24.19   5.59
 1989 310   132    97  42.5  15.1  27.4  0.87  1.59 164.2  13.2  14.2  1.59  1.59  0.00  1.04  24.67   5.97
 1989 311   133    98  42.5  16.0  26.6  0.88  1.59 164.2  13.1  13.5  1.59  1.59  0.00  1.05  25.15   6.34
 1989 312   134    99  42.5  16.8  25.7  0.89  1.58 164.2  12.9  12.8  1.58  1.58  0.00  1.05  25.63   6.72
 1989 313   135   100  42.5  17.7  24.8  0.91  1.58 164.2  12.7  12.1  1.58  1.58  0.00  1.06  26.11   7.10
 1989 314   136   101  42.5  18.5  24.0  0.92  1.57 164.2  12.6  11.4  1.57  1.57  0.00  1.06  26.59   7.47
 1989 315   137   102  42.5  19.4  23.1  0.93  1.57 164.2  12.4  10.7  1.57  1.57  0.00  1.07  27.07   7.85
 1989 316   138   103  42.5  20.3  22.3  0.94  1.55 164.2  12.2  10.1  1.55  1.55  0.00  1.07  27.56   8.23
 1989 317   139   104  42.5  21.1  21.4  0.95  1.54 164.2  12.0   9.4  1.54  1.54  0.00  1.08  28.04   8.60
 1989 318   140   105  42.5  21.4  21.1  0.96  1.52 164.2  11.8   9.3  1.52  1.52  0.00  1.09  28.52   8.98
 1989 319   141   106  42.5  21.7  20.9  0.96  1.50 164.2  11.7   9.2  1.50  1.50  0.00  1.09  29.00   9.35
 1989 320   142   107  42.5  21.7  20.9  0.96  1.50 164.2  11.7   9.2  1.50  1.50  0.00  1.09  29.00   9.35
 1989 321   143   108  42.5  21.7  20.9  0.96  1.50 164.2  11.7   9.2  1.50  1.50  0.00  1.09  29.00   9.35

*DSSAT Cropping System Model Ver. 4.6.1.000 -release      DEC 02, 2018; 12:33:08
                                                                                
*RUN   5        : 90_01                     RICER046 SSKT0001    5              
 MODEL          : RICER046 - Rice                                               
 EXPERIMENT     : SSKT0001 RI mulation, Thailand                                
 DATA PATH      : C:\DSSAT46\Rice\                                              
 TREATMENT  5   : 90_01                     RICER046                            
  
@YEAR DOY   DAS   DAP  CNAD  GNAD  VNAD  GN%D  VN%D  NUPC  LNAD  SNAD  LN%D  SN%D  SHND  RN%D  SNN0C  SNN1C                                 
 1990 213    35     0   9.4   0.0   9.4  0.00  3.31 165.9   8.5   0.9  3.31  3.31  0.00  0.63   0.00   0.00
 1990 214    36     1  10.6   0.0  10.6  0.00  3.71 167.7   9.5   1.1  3.71  3.71  0.00  1.04   0.00   0.00
 1990 215    37     2  11.3   0.0  11.3  0.00  3.96 168.8  10.1   1.1  3.96  3.96  0.00  1.31   0.01   0.00
 1990 216    38     3  11.3   0.0  11.3  0.00  3.95 168.8  10.1   1.1  3.95  3.95  0.00  1.22   0.02   0.13
 1990 217    39     4  11.3   0.0  11.3  0.00  3.93 169.0  10.1   1.1  3.93  3.93  0.00  1.20   0.03   0.27
 1990 218    40     5  11.2   0.0  11.2  0.00  3.91 169.2  10.1   1.1  3.91  3.91  0.00  1.18   0.03   0.42
 1990 219    41     6  11.2   0.0  11.2  0.00  3.89 169.7  10.1   1.1  3.89  3.89  0.00  1.26   0.04   0.58
 1990 220    42     7  11.2   0.0  11.2  0.00  3.76 169.7  10.0   1.2  3.76  3.76  0.00  1.18   0.05   0.78
 1990 221    43     8  11.2   0.0  11.2  0.00  3.60 169.8   9.8   1.4  3.60  3.60  0.00  1.14   0.06   0.98
 1990 222    44     9  11.7   0.0  11.7  0.00  3.56 170.4  10.0   1.7  3.56  3.56  0.00  1.12   0.07   1.18
 1990 223    45    10  12.4   0.0  12.4  0.00  3.54 171.3  10.4   2.0  3.54  3.54  0.00  1.10   0.07   1.40
 1990 224    46    11  13.9   0.0  13.9  0.00  3.41 172.8  11.0   2.8  3.41  3.41  0.00  1.05   0.08   1.63
 1990 225    47    12  15.6   0.0  15.6  0.00  3.39 174.6  12.0   3.7  3.39  3.39  0.00  1.03   0.09   1.86
 1990 226    48    13  18.2   0.0  18.2  0.00  3.39 177.3  13.4   4.8  3.39  3.39  0.00  1.03   0.10   2.09
 1990 227    49    14  20.6   0.0  20.6  0.00  3.31 180.0  14.6   6.0  3.31  3.31  0.00  1.03   0.10   2.34
 1990 228    50    15  22.7   0.0  22.7  0.00  3.35 182.2  15.8   6.9  3.35  3.35  0.00  1.03   0.11   2.34
 1990 229    51    16  24.6   0.0  24.6  0.00  3.15 184.3  16.6   8.0  3.15  3.15  0.00  1.00   0.12   2.60
 1990 230    52    17  25.3   0.0  25.3  0.00  2.84 185.0  16.7   8.6  2.84  2.84  0.00  0.96   0.14   2.60
 1990 231    53    18  26.3   0.0  26.3  0.00  2.64 186.1  16.7   9.6  2.64  2.64  0.00  0.92   0.17   2.60
 1990 232    54    19  27.1   0.0  27.1  0.00  2.51 186.9  16.7  10.4  2.51  2.51  0.00  0.90   0.21   2.60
 1990 233    55    20  27.3   0.0  27.3  0.00  2.34 187.1  16.3  11.0  2.34  2.34  0.00  0.87   0.26   2.60
 1990 234    56    21  28.0   0.0  28.0  0.00  2.28 187.9  16.3  11.7  2.28  2.28  0.00  0.85   0.31   2.60
 1990 235    57    22  28.2   0.0  28.2  0.00  2.16 188.1  15.9  12.3  2.16  2.16  0.00  0.83   0.38   2.60
 1990 236    58    23  28.5   0.0  28.5  0.00  2.07 188.5  15.6  12.9  2.07  2.07  0.00  0.81   0.45   2.60
 1990 237    59    24  29.4   0.0  29.4  0.00  2.07 189.4  15.8  13.6  2.07  2.07  0.00  0.81   0.53   2.60
 1990 238    60    25  29.7   0.0  29.7  0.00  2.02 189.7  15.7  14.0  2.02  2.02  0.00  0.80   0.62   2.60
 1990 239    61    26  30.0   0.0  30.0  0.00  1.97 190.0  15.5  14.4  1.97  1.97  0.00  0.80   0.72   2.60
 1990 240    62    27  30.3   0.0  30.3  0.00  1.94 190.3  15.5  14.8  1.94  1.94  0.00  0.79   0.82   2.60
 1990 241    63    28  30.5   0.0  30.5  0.00  1.91 190.6  15.4  15.1  1.91  1.91  0.00  0.79   0.94   2.60
 1990 242    64    29  30.8   0.0  30.8  0.00  1.88 190.8  15.3  15.5  1.88  1.88  0.00  0.78   1.06   2.60
 1990 243    65    30  31.6   0.0  31.6  0.00  1.86 191.7  15.3  16.2  1.86  1.86  0.00  0.78   1.19   2.60
 1990 244    66    31  31.9   0.0  31.9  0.00  1.81 192.0  15.2  16.7  1.81  1.81  0.00  0.77   1.33   2.60
 1990 245    67    32  32.2   0.0  32.2  0.00  1.79 192.3  15.1  17.1  1.79  1.79  0.00  0.76   1.48   2.60
 1990 246    68    33  32.5   0.0  32.5  0.00  1.77 192.6  15.0  17.4  1.77  1.77  0.00  0.76   1.63   2.60
 1990 247    69    34  33.3   0.0  33.3  0.00  1.78 193.5  15.2  18.1  1.78  1.78  0.00  0.76   1.80   2.60
 1990 248    70    35  33.6   0.0  33.6  0.00  1.75 193.8  15.2  18.5  1.75  1.75  0.00  0.76   1.97   2.60
 1990 249    71    36  34.0   0.0  34.0  0.00  1.73 194.2  15.1  18.9  1.73  1.73  0.00  0.75   2.15   2.60
 1990 250    72    37  34.3   0.0  34.3  0.00  1.71 194.6  15.0  19.3  1.71  1.71  0.00  0.75   2.34   2.60
 1990 251    73    38  35.2   0.0  35.2  0.00  1.72 195.5  15.2  20.0  1.72  1.72  0.00  0.75   2.53   2.60
 1990 252    74    39  35.6   0.0  35.6  0.00  1.71 195.9  15.2  20.4  1.71  1.71  0.00  0.75   2.74   2.60
 1990 253    75    40  35.8   0.0  35.8  0.00  1.69 196.2  15.1  20.7  1.69  1.69  0.00  0.75   2.95   2.60
 1990 254    76    41  36.2   0.0  36.2  0.00  1.68 196.6  15.1  21.1  1.68  1.68  0.00  0.75   3.18   2.60
 1990 255    77    42  36.5   0.0  36.5  0.00  1.67 196.9  15.1  21.4  1.67  1.67  0.00  0.75   3.41   2.60
 1990 256    78    43  36.8   0.0  36.8  0.00  1.66 197.2  15.1  21.7  1.66  1.66  0.00  0.75   3.65   2.60
 1990 257    79    44  37.6   0.0  37.6  0.00  1.66 198.1  15.2  22.4  1.66  1.66  0.00  0.75   3.89   2.60
 1990 258    80    45  37.9   0.0  37.9  0.00  1.65 198.4  15.2  22.8  1.65  1.65  0.00  0.76   4.15   2.60
 1990 259    81    46  38.2   0.0  38.2  0.00  1.64 198.7  15.1  23.1  1.64  1.64  0.00  0.76   4.42   2.60
 1990 260    82    47  38.6   0.0  38.6  0.00  1.63 199.1  15.1  23.5  1.63  1.63  0.00  0.76   4.69   2.60
 1990 261    83    48  38.9   0.0  38.9  0.00  1.61 199.4  15.0  23.9  1.61  1.61  0.00  0.76   4.97   2.60
 1990 262    84    49  39.7   0.0  39.7  0.00  1.63 200.2  15.2  24.5  1.63  1.63  0.00  0.77   5.26   2.60
 1990 263    85    50  39.7   0.0  39.7  0.00  1.61 200.2  15.1  24.6  1.61  1.61  0.00  0.77   5.56   2.60
 1990 264    86    51  39.7   0.0  39.7  0.00  1.58 200.2  14.9  24.8  1.58  1.58  0.00  0.77   5.87   2.60
 1990 265    87    52  39.7   0.0  39.7  0.00  1.56 200.2  14.7  24.9  1.56  1.56  0.00  0.77   6.18   2.60
 1990 266    88    53  39.7   0.0  39.7  0.00  1.54 200.2  14.6  25.1  1.54  1.54  0.00  0.77   6.51   2.60
 1990 267    89    54  39.7   0.0  39.7  0.00  1.52 200.2  14.4  25.3  1.52  1.52  0.00  0.76   6.84   2.60
 1990 268    90    55  39.7   0.0  39.7  0.00  1.50 200.2  14.3  25.4  1.50  1.50  0.00  0.76   7.18   2.60
 1990 269    91    56  40.2   0.0  40.2  0.00  1.50 200.8  14.4  25.8  1.50  1.50  0.00  0.77   7.53   2.60
 1990 270    92    57  40.2   0.0  40.2  0.00  1.48 200.8  14.2  26.0  1.48  1.48  0.00  0.77   7.88   2.60
 1990 271    93    58  40.2   0.0  40.2  0.00  1.46 200.8  14.1  26.1  1.46  1.46  0.00  0.77   8.25   2.60
 1990 272    94    59  40.2   0.0  40.2  0.00  1.44 200.8  13.9  26.3  1.44  1.44  0.00  0.77   8.62   2.60
 1990 273    95    60  40.2   0.0  40.2  0.00  1.42 200.8  13.8  26.4  1.42  1.42  0.00  0.77   9.00   2.60
 1990 274    96    61  40.2   0.0  40.2  0.00  1.41 200.8  13.7  26.5  1.41  1.41  0.00  0.77   9.39   2.60
 1990 275    97    62  40.2   0.0  40.2  0.00  1.39 200.8  13.5  26.7  1.39  1.39  0.00  0.77   9.78   2.60
 1990 276    98    63  40.2   0.0  40.2  0.00  1.38 200.8  13.5  26.7  1.38  1.38  0.00  0.77  10.19   2.60
 1990 277    99    64  40.2   0.0  40.2  0.00  1.37 200.8  13.4  26.8  1.37  1.37  0.00  0.77  10.60   2.60
 1990 278   100    65  40.2   0.0  40.2  0.00  1.36 200.8  13.3  26.9  1.36  1.36  0.00  0.78  11.01   2.60
 1990 279   101    66  40.3   0.0  40.3  0.00  1.35 200.9  13.2  27.1  1.35  1.35  0.00  0.78  11.44   2.60
 1990 280   102    67  40.6   0.0  40.6  0.00  1.35 201.1  13.2  27.3  1.35  1.35  0.00  0.78  11.87   2.60
 1990 281   103    68  41.1   0.0  41.1  0.00  1.35 201.7  13.3  27.8  1.35  1.35  0.00  0.79  12.32   2.60
 1990 282   104    69  41.2   0.0  41.2  0.00  1.34 201.9  13.3  28.0  1.34  1.34  0.00  0.79  12.76   2.60
 1990 283   105    70  42.1   0.0  42.1  0.00  1.36 202.8  13.4  28.7  1.36  1.36  0.00  0.80  13.22   2.60
 1990 284   106    71  42.4   0.0  42.4  0.00  1.35 203.1  13.4  29.1  1.35  1.35  0.00  0.80  13.69   2.60
 1990 285   107    72  42.7   0.0  42.7  0.00  1.34 203.4  13.3  29.4  1.34  1.34  0.00  0.80  14.16   2.60
 1990 286   108    73  42.9   0.0  42.9  0.00  1.34 203.6  13.3  29.6  1.34  1.34  0.00  0.81  14.64   2.60
 1990 287   109    74  43.3   0.0  43.3  0.00  1.34 204.0  13.3  30.0  1.34  1.34  0.00  0.81  15.13   2.60
 1990 288   110    75  43.5   0.0  43.5  0.00  1.34 204.3  13.3  30.2  1.34  1.34  0.00  0.82  15.62   2.60
 1990 289   111    76  43.8   0.0  43.8  0.00  1.34 204.6  13.3  30.5  1.34  1.34  0.00  0.82  16.13   2.60
 1990 290   112    77  44.2   0.0  44.2  0.00  1.34 205.0  13.3  30.8  1.34  1.34  0.00  0.83  16.65   2.60
 1990 291   113    78  44.4   0.0  44.4  0.00  1.34 205.2  13.3  31.1  1.34  1.34  0.00  0.84  17.17   2.60
 1990 292   114    79  45.1   0.0  45.1  0.00  1.35 206.0  13.5  31.6  1.35  1.35  0.00  0.85  17.71   2.60
 1990 293   115    80  45.4   0.0  45.4  0.00  1.34 206.3  13.5  31.9  1.34  1.34  0.00  0.85  18.25   2.60
 1990 294   116    81  45.7   0.0  45.7  0.00  1.34 206.7  13.5  32.3  1.34  1.34  0.00  0.86  18.79   2.60
 1990 295   117    82  45.9   0.0  45.9  0.00  1.33 206.8  13.4  32.5  1.33  1.33  0.00  0.86  19.33   2.60
 1990 296   118    83  46.2   0.0  46.2  0.00  1.33 207.2  13.3  32.9  1.33  1.33  0.00  0.87  19.88   2.60
 1990 297   119    84  46.4   0.0  46.4  0.00  1.32 207.4  13.3  33.1  1.32  1.32  0.00  0.87  20.42   2.60
 1990 298   120    85  46.5   0.0  46.5  0.00  1.32 207.5  13.2  33.3  1.32  1.32  0.00  0.87  20.97   2.60
 1990 299   121    86  46.5   0.0  46.5  0.00  1.30 207.5  13.0  33.5  1.30  1.30  0.00  0.87  21.52   2.60
 1990 300   122    87  46.5   9.5  37.0  0.73  1.60 207.5  16.0  21.0  1.60  1.60  0.00  0.87  22.06   2.60
 1990 301   123    88  46.5  10.5  36.0  0.74  1.60 207.5  15.9  20.2  1.60  1.60  0.00  0.88  22.61   2.60
 1990 302   124    89  46.5  11.4  35.1  0.76  1.60 207.5  15.7  19.4  1.60  1.60  0.00  0.88  23.16   2.60
 1990 303   125    90  46.5  12.4  34.1  0.77  1.59 207.5  15.5  18.6  1.59  1.59  0.00  0.88  23.70   2.60
 1990 304   126    91  46.5  13.4  33.1  0.78  1.59 207.5  15.4  17.8  1.59  1.59  0.00  0.88  24.25   2.60
 1990 305   127    92  46.5  14.3  32.1  0.80  1.58 207.5  15.2  17.0  1.58  1.58  0.00  0.88  24.80   2.60
 1990 306   128    93  46.5  15.3  31.2  0.81  1.58 207.5  15.0  16.1  1.58  1.58  0.00  0.89  25.35   2.60
 1990 307   129    94  46.5  16.3  30.1  0.82  1.58 207.9  14.8  15.3  1.58  1.58  0.00  0.96  25.90   2.98
 1990 308   130    95  46.4  17.3  29.1  0.83  1.57 208.2  14.6  14.5  1.57  1.57  0.00  1.01  26.45   3.39
 1990 309   131    96  46.4  18.3  28.1  0.84  1.57 208.2  14.5  13.6  1.57  1.57  0.00  1.01  26.99   3.82
 1990 310   132    97  46.4  19.3  27.1  0.85  1.57 208.2  14.3  12.8  1.57  1.57  0.00  1.02  27.54   4.25
 1990 311   133    98  46.4  20.3  26.2  0.87  1.56 208.2  14.2  12.0  1.56  1.56  0.00  1.03  28.09   4.68
 1990 312   134    99  46.4  21.3  25.2  0.88  1.55 208.2  13.9  11.2  1.55  1.55  0.00  1.03  28.64   5.11
 1990 313   135   100  46.4  22.2  24.2  0.89  1.54 208.2  13.7  10.5  1.54  1.54  0.00  1.04  29.19   5.54
 1990 314   136   101  46.4  22.9  23.5  0.91  1.52 208.2  13.4  10.0  1.52  1.52  0.00  1.04  29.74   5.97
 1990 315   137   102  46.4  23.6  22.8  0.91  1.50 208.2  13.2   9.6  1.50  1.50  0.00  1.05  30.30   6.40
 1990 316   138   103  46.4  23.8  22.6  0.92  1.48 208.2  13.1   9.5  1.48  1.48  0.00  1.05  30.85   6.83
 1990 317   139   104  46.4  24.0  22.4  0.92  1.47 208.2  13.0   9.4  1.47  1.47  0.00  1.06  31.40   7.26
 1990 318   140   105  46.4  24.3  22.1  0.93  1.45 208.2  12.8   9.3  1.45  1.45  0.00  1.07  31.95   7.69
 1990 319   141   106  46.4  24.6  21.9  0.93  1.43 208.2  12.6   9.2  1.43  1.43  0.00  1.07  32.50   8.12
 1990 320   142   107  46.4  24.9  21.5  0.93  1.41 208.2  12.4   9.1  1.41  1.41  0.00  1.08  33.05   8.55
 1990 321   143   108  46.4  25.3  21.2  0.94  1.39 208.2  12.2   8.9  1.39  1.39  0.00  1.08  33.61   8.98
 1990 322   144   109  46.4  25.3  21.2  0.94  1.39 208.2  12.2   8.9  1.39  1.39  0.00  1.08  33.61   8.98
 1990 323   145   110  46.4  25.3  21.2  0.94  1.39 208.2  12.2   8.9  1.39  1.39  0.00  1.08  33.61   8.98

*DSSAT Cropping System Model Ver. 4.6.1.000 -release      DEC 02, 2018; 12:33:08
                                                                                
*RUN   6        : 91_01                     RICER046 SSKT0001    6              
 MODEL          : RICER046 - Rice                                               
 EXPERIMENT     : SSKT0001 RI mulation, Thailand                                
 DATA PATH      : C:\DSSAT46\Rice\                                              
 TREATMENT  6   : 91_01                     RICER046                            
  
@YEAR DOY   DAS   DAP  CNAD  GNAD  VNAD  GN%D  VN%D  NUPC  LNAD  SNAD  LN%D  SN%D  SHND  RN%D  SNN0C  SNN1C                                 
 1991 213    35     0   9.5   0.0   9.5  0.00  3.36 210.1   8.6   1.0  3.36  3.36  0.00  0.66   0.00   0.00
 1991 214    36     1  10.5   0.0  10.5  0.00  3.70 211.6   9.5   1.1  3.70  3.70  0.00  1.06   0.00   0.00
 1991 215    37     2  10.8   0.0  10.8  0.00  3.79 212.1   9.7   1.1  3.79  3.79  0.00  1.17   0.01   0.00
 1991 216    38     3  10.9   0.0  10.9  0.00  3.85 212.4   9.9   1.1  3.85  3.85  0.00  1.20   0.02   0.00
 1991 217    39     4  10.9   0.0  10.9  0.00  3.83 212.6   9.8   1.1  3.83  3.83  0.00  1.25   0.03   0.13
 1991 218    40     5  10.9   0.0  10.9  0.00  3.81 212.8   9.8   1.1  3.81  3.81  0.00  1.19   0.04   0.28
 1991 219    41     6  10.9   0.0  10.9  0.00  3.78 213.0   9.8   1.1  3.78  3.78  0.00  1.15   0.04   0.44
 1991 220    42     7  10.9   0.0  10.9  0.00  3.62 213.2   9.7   1.2  3.62  3.62  0.00  1.14   0.05   0.61
 1991 221    43     8  11.3   0.0  11.3  0.00  3.56 213.7   9.8   1.5  3.56  3.56  0.00  1.12   0.06   0.80
 1991 222    44     9  11.8   0.0  11.8  0.00  3.55 214.5  10.1   1.7  3.55  3.55  0.00  1.11   0.07   1.01
 1991 223    45    10  12.4   0.0  12.4  0.00  3.50 215.1  10.3   2.0  3.50  3.50  0.00  1.07   0.08   1.22
 1991 224    46    11  13.7   0.0  13.7  0.00  3.39 216.4  10.9   2.7  3.39  3.39  0.00  1.03   0.09   1.44
 1991 225    47    12  15.3   0.0  15.3  0.00  3.38 218.2  11.8   3.5  3.38  3.38  0.00  1.03   0.09   1.65
 1991 226    48    13  17.0   0.0  17.0  0.00  3.37 220.0  12.8   4.3  3.37  3.37  0.00  1.02   0.10   1.88
 1991 227    49    14  18.8   0.0  18.8  0.00  3.36 221.9  13.7   5.1  3.36  3.36  0.00  1.03   0.11   2.11
 1991 228    50    15  20.5   0.0  20.5  0.00  3.35 223.7  14.6   5.9  3.35  3.35  0.00  1.02   0.12   2.35
 1991 229    51    16  22.3   0.0  22.3  0.00  3.34 225.6  15.6   6.7  3.34  3.34  0.00  1.02   0.13   2.59
 1991 230    52    17  24.2   0.0  24.2  0.00  3.33 227.7  16.7   7.6  3.33  3.33  0.00  1.02   0.14   2.85
 1991 231    53    18  26.7   0.0  26.7  0.00  3.29 230.5  18.0   8.7  3.29  3.29  0.00  1.03   0.15   3.11
 1991 232    54    19  28.4   0.0  28.4  0.00  3.04 232.2  18.6   9.7  3.04  3.04  0.00  0.99   0.16   3.11
 1991 233    55    20  29.4   0.0  29.4  0.00  2.81 233.4  19.0  10.4  2.81  2.81  0.00  0.95   0.18   3.11
 1991 234    56    21  30.1   0.0  30.1  0.00  2.71 234.1  19.1  11.1  2.71  2.71  0.00  0.93   0.21   3.11
 1991 235    57    22  30.4   0.0  30.4  0.00  2.57 234.4  18.8  11.6  2.57  2.57  0.00  0.91   0.25   3.11
 1991 236    58    23  30.6   0.0  30.6  0.00  2.38 234.6  18.3  12.3  2.38  2.38  0.00  0.87   0.30   3.11
 1991 237    59    24  30.9   0.0  30.9  0.00  2.26 234.9  18.0  12.9  2.26  2.26  0.00  0.84   0.36   3.11
 1991 238    60    25  31.5   0.0  31.5  0.00  2.20 235.6  17.9  13.6  2.20  2.20  0.00  0.83   0.43   3.11
 1991 239    61    26  31.9   0.0  31.9  0.00  2.15 236.0  17.8  14.0  2.15  2.15  0.00  0.82   0.51   3.11
 1991 240    62    27  32.2   0.0  32.2  0.00  2.10 236.3  17.7  14.5  2.10  2.10  0.00  0.81   0.59   3.11
 1991 241    63    28  32.3   0.0  32.3  0.00  2.05 236.4  17.5  14.8  2.05  2.05  0.00  0.81   0.69   3.11
 1991 242    64    29  32.3   0.0  32.3  0.00  1.98 236.4  17.1  15.2  1.98  1.98  0.00  0.79   0.80   3.11
 1991 243    65    30  32.3   0.0  32.3  0.00  1.93 236.5  16.9  15.5  1.93  1.93  0.00  0.78   0.92   3.11
 1991 244    66    31  32.3   0.0  32.3  0.00  1.86 236.5  16.5  15.8  1.86  1.86  0.00  0.77   1.04   3.11
 1991 245    67    32  32.3   0.0  32.3  0.00  1.80 236.5  16.2  16.2  1.80  1.80  0.00  0.75   1.18   3.11
 1991 246    68    33  32.3   0.0  32.3  0.00  1.77 236.5  16.0  16.3  1.77  1.77  0.00  0.75   1.32   3.11
 1991 247    69    34  32.3   0.0  32.3  0.00  1.74 236.5  15.9  16.5  1.74  1.74  0.00  0.75   1.48   3.11
 1991 248    70    35  32.3   0.0  32.3  0.00  1.72 236.5  15.7  16.7  1.72  1.72  0.00  0.75   1.64   3.11
 1991 249    71    36  32.3   0.0  32.3  0.00  1.68 236.5  15.5  16.9  1.68  1.68  0.00  0.74   1.81   3.11
 1991 250    72    37  32.9   0.0  32.9  0.00  1.67 237.0  15.5  17.4  1.67  1.67  0.00  0.74   1.99   3.11
 1991 251    73    38  32.9   0.0  32.9  0.00  1.64 237.0  15.3  17.6  1.64  1.64  0.00  0.73   2.17   3.11
 1991 252    74    39  32.9   0.0  32.9  0.00  1.62 237.0  15.1  17.8  1.62  1.62  0.00  0.73   2.37   3.11
 1991 253    75    40  32.9   0.0  32.9  0.00  1.59 237.0  15.0  17.9  1.59  1.59  0.00  0.73   2.57   3.11
 1991 254    76    41  32.9   0.0  32.9  0.00  1.57 237.0  14.8  18.1  1.57  1.57  0.00  0.73   2.79   3.11
 1991 255    77    42  32.9   0.0  32.9  0.00  1.55 237.0  14.7  18.2  1.55  1.55  0.00  0.72   3.01   3.11
 1991 256    78    43  32.9   0.0  32.9  0.00  1.53 237.0  14.5  18.4  1.53  1.53  0.00  0.72   3.24   3.11
 1991 257    79    44  32.9   0.0  32.9  0.00  1.51 237.0  14.4  18.5  1.51  1.51  0.00  0.72   3.47   3.11
 1991 258    80    45  32.9   0.0  32.9  0.00  1.49 237.0  14.2  18.6  1.49  1.49  0.00  0.72   3.72   3.11
 1991 259    81    46  33.4   0.0  33.4  0.00  1.50 237.6  14.3  19.1  1.50  1.50  0.00  0.73   3.97   3.11
 1991 260    82    47  33.4   0.0  33.4  0.00  1.49 237.6  14.2  19.2  1.49  1.49  0.00  0.73   4.23   3.11
 1991 261    83    48  33.9   0.0  33.9  0.00  1.49 238.1  14.3  19.6  1.49  1.49  0.00  0.73   4.50   3.11
 1991 262    84    49  33.9   0.0  33.9  0.00  1.47 238.1  14.1  19.8  1.47  1.47  0.00  0.74   4.78   3.11
 1991 263    85    50  33.9   0.0  33.9  0.00  1.45 238.1  14.0  19.9  1.45  1.45  0.00  0.74   5.06   3.11
 1991 264    86    51  34.0   0.0  34.0  0.00  1.44 238.2  13.9  20.1  1.44  1.44  0.00  0.74   5.35   3.11
 1991 265    87    52  34.1   0.0  34.1  0.00  1.43 238.3  13.8  20.3  1.43  1.43  0.00  0.74   5.65   3.11
 1991 266    88    53  34.1   0.0  34.1  0.00  1.42 238.3  13.7  20.4  1.42  1.42  0.00  0.74   5.96   3.11
 1991 267    89    54  34.4   0.0  34.4  0.00  1.41 238.6  13.7  20.7  1.41  1.41  0.00  0.75   6.28   3.11
 1991 268    90    55  34.6   0.0  34.6  0.00  1.40 238.8  13.6  21.0  1.40  1.40  0.00  0.75   6.60   3.11
 1991 269    91    56  34.8   0.0  34.8  0.00  1.40 239.1  13.6  21.2  1.40  1.40  0.00  0.75   6.93   3.11
 1991 270    92    57  35.5   0.0  35.5  0.00  1.41 239.8  13.7  21.8  1.41  1.41  0.00  0.76   7.27   3.11
 1991 271    93    58  35.8   0.0  35.8  0.00  1.41 240.1  13.7  22.1  1.41  1.41  0.00  0.76   7.61   3.11
 1991 272    94    59  36.5   0.0  36.5  0.00  1.42 240.9  13.9  22.7  1.42  1.42  0.00  0.77   7.97   3.11
 1991 273    95    60  36.8   0.0  36.8  0.00  1.42 241.2  13.8  23.0  1.42  1.42  0.00  0.78   8.33   3.11
 1991 274    96    61  37.1   0.0  37.1  0.00  1.41 241.4  13.8  23.3  1.41  1.41  0.00  0.78   8.70   3.11
 1991 275    97    62  37.2   0.0  37.2  0.00  1.41 241.6  13.8  23.5  1.41  1.41  0.00  0.78   9.08   3.11
 1991 276    98    63  37.5   0.0  37.5  0.00  1.40 241.9  13.8  23.8  1.40  1.40  0.00  0.79   9.47   3.11
 1991 277    99    64  37.8   0.0  37.8  0.00  1.40 242.2  13.8  24.0  1.40  1.40  0.00  0.79   9.86   3.11
 1991 278   100    65  38.6   0.0  38.6  0.00  1.41 243.0  13.9  24.6  1.41  1.41  0.00  0.80  10.26   3.11
 1991 279   101    66  38.9   0.0  38.9  0.00  1.41 243.3  13.9  24.9  1.41  1.41  0.00  0.80  10.67   3.11
 1991 280   102    67  39.2   0.0  39.2  0.00  1.41 243.6  13.9  25.2  1.41  1.41  0.00  0.81  11.09   3.11
 1991 281   103    68  39.4   0.0  39.4  0.00  1.41 243.9  14.0  25.5  1.41  1.41  0.00  0.81  11.51   3.11
 1991 282   104    69  39.7   0.0  39.7  0.00  1.40 244.2  13.9  25.7  1.40  1.40  0.00  0.81  11.95   3.11
 1991 283   105    70  40.0   0.0  40.0  0.00  1.39 244.5  13.9  26.1  1.39  1.39  0.00  0.82  12.39   3.11
 1991 284   106    71  40.3   0.0  40.3  0.00  1.39 244.8  13.9  26.4  1.39  1.39  0.00  0.82  12.84   3.11
 1991 285   107    72  40.5   0.0  40.5  0.00  1.38 245.1  13.8  26.7  1.38  1.38  0.00  0.82  13.30   3.11
 1991 286   108    73  40.8   0.0  40.8  0.00  1.38 245.4  13.8  27.0  1.38  1.38  0.00  0.82  13.76   3.11
 1991 287   109    74  41.0   0.0  41.0  0.00  1.37 245.6  13.8  27.2  1.37  1.37  0.00  0.83  14.24   3.11
 1991 288   110    75  41.1   0.0  41.1  0.00  1.36 245.7  13.7  27.5  1.36  1.36  0.00  0.83  14.72   3.11
 1991 289   111    76  41.2   0.0  41.2  0.00  1.34 245.8  13.5  27.7  1.34  1.34  0.00  0.83  15.21   3.11
 1991 290   112    77  41.3   0.0  41.3  0.00  1.33 245.9  13.5  27.9  1.33  1.33  0.00  0.83  15.72   3.11
 1991 291   113    78  41.4   0.0  41.4  0.00  1.32 246.0  13.4  28.0  1.32  1.32  0.00  0.83  16.23   3.11
 1991 292   114    79  41.4   0.0  41.4  0.00  1.31 246.0  13.3  28.1  1.31  1.31  0.00  0.83  16.75   3.11
 1991 293   115    80  41.4   0.0  41.4  0.00  1.30 246.0  13.2  28.2  1.30  1.30  0.00  0.83  17.28   3.11
 1991 294   116    81  41.4   0.0  41.4  0.00  1.29 246.0  13.1  28.3  1.29  1.29  0.00  0.83  17.82   3.11
 1991 295   117    82  41.4   0.0  41.4  0.00  1.28 246.0  13.0  28.4  1.28  1.28  0.00  0.83  18.35   3.11
 1991 296   118    83  41.4   0.0  41.4  0.00  1.27 246.0  12.9  28.5  1.27  1.27  0.00  0.84  18.88   3.11
 1991 297   119    84  41.5   0.0  41.5  0.00  1.26 246.2  12.8  28.7  1.26  1.26  0.00  0.84  19.42   3.11
 1991 298   120    85  41.8   0.0  41.8  0.00  1.26 246.5  12.8  29.0  1.26  1.26  0.00  0.85  19.95   3.11
 1991 299   121    86  42.2   0.0  42.2  0.00  1.26 246.9  12.8  29.4  1.26  1.26  0.00  0.85  20.49   3.11
 1991 300   122    87  43.1   0.0  43.1  0.00  1.28 247.9  13.0  30.1  1.28  1.28  0.00  0.88  21.03   3.11
 1991 301   123    88  43.4   7.8  35.6  0.65  1.60 248.4  16.2  19.3  1.60  1.60  0.00  0.92  21.57   3.11
 1991 302   124    89  43.4   7.8  35.5  0.65  1.56 248.9  15.9  19.6  1.56  1.56  0.00  1.01  22.11   3.49
 1991 303   125    90  43.3   7.9  35.5  0.65  1.53 249.0  15.5  19.9  1.53  1.53  0.00  1.01  22.64   3.90
 1991 304   126    91  43.3   7.9  35.4  0.66  1.50 249.0  15.2  20.2  1.50  1.50  0.00  1.01  23.18   4.32
 1991 305   127    92  43.2   7.9  35.3  0.66  1.47 249.0  14.9  20.4  1.47  1.47  0.00  1.01  23.72   4.73
 1991 306   128    93  43.2   8.8  34.5  0.68  1.46 249.0  14.7  19.8  1.46  1.46  0.00  1.01  24.26   5.14
 1991 307   129    94  43.2   9.6  33.6  0.70  1.45 249.0  14.5  19.1  1.45  1.45  0.00  1.01  24.80   5.56
 1991 308   130    95  43.2  10.5  32.7  0.73  1.43 249.0  14.3  18.5  1.43  1.43  0.00  1.01  25.34   5.97
 1991 309   131    96  43.2  11.4  31.9  0.75  1.42 249.0  14.1  17.8  1.42  1.42  0.00  1.02  25.88   6.39
 1991 310   132    97  43.2  12.3  31.0  0.76  1.41 249.0  13.8  17.1  1.41  1.41  0.00  1.02  26.42   6.80
 1991 311   133    98  43.2  13.2  30.1  0.78  1.40 249.0  13.7  16.4  1.40  1.40  0.00  1.02  26.97   7.21
 1991 312   134    99  43.2  14.0  29.2  0.79  1.39 249.0  13.5  15.7  1.39  1.39  0.00  1.03  27.51   7.63
 1991 313   135   100  43.2  14.9  28.4  0.81  1.39 249.0  13.3  15.0  1.39  1.39  0.00  1.03  28.05   8.04
 1991 314   136   101  43.2  15.8  27.5  0.82  1.37 249.0  13.1  14.4  1.37  1.37  0.00  1.04  28.59   8.45
 1991 315   137   102  43.2  16.6  26.6  0.84  1.36 249.0  12.9  13.7  1.36  1.36  0.00  1.04  29.13   8.87
 1991 316   138   103  43.2  17.5  25.7  0.85  1.34 249.0  12.6  13.1  1.34  1.34  0.00  1.04  29.68   9.28
 1991 317   139   104  43.2  18.3  24.9  0.87  1.32 249.0  12.3  12.6  1.32  1.32  0.00  1.05  30.22   9.69
 1991 318   140   105  43.2  19.2  24.1  0.88  1.29 249.0  12.1  12.0  1.29  1.29  0.00  1.05  30.76  10.11
 1991 319   141   106  43.2  20.0  23.3  0.90  1.27 249.0  11.8  11.5  1.27  1.27  0.00  1.06  31.31  10.52
 1991 320   142   107  43.2  20.7  22.5  0.91  1.24 249.0  11.5  11.0  1.24  1.24  0.00  1.06  31.85  10.94
 1991 321   143   108  43.2  21.5  21.8  0.92  1.22 249.0  11.2  10.5  1.22  1.22  0.00  1.07  32.40  11.35
 1991 322   144   109  43.2  22.3  21.0  0.94  1.19 249.0  10.9  10.0  1.19  1.19  0.00  1.07  32.94  11.76
 1991 323   145   110  43.2  22.6  20.6  0.94  1.17 249.0  10.8   9.9  1.17  1.17  0.00  1.08  33.49  12.18
 1991 324   146   111  43.2  22.6  20.6  0.94  1.17 249.0  10.8   9.9  1.17  1.17  0.00  1.08  33.49  12.18
 1991 325   147   112  43.2  22.6  20.6  0.94  1.17 249.0  10.8   9.9  1.17  1.17  0.00  1.08  33.49  12.18

*DSSAT Cropping System Model Ver. 4.6.1.000 -release      DEC 02, 2018; 12:33:08
                                                                                
*RUN   7        : 92_01                     RICER046 SSKT0001    7              
 MODEL          : RICER046 - Rice                                               
 EXPERIMENT     : SSKT0001 RI mulation, Thailand                                
 DATA PATH      : C:\DSSAT46\Rice\                                              
 TREATMENT  7   : 92_01                     RICER046                            
  
@YEAR DOY   DAS   DAP  CNAD  GNAD  VNAD  GN%D  VN%D  NUPC  LNAD  SNAD  LN%D  SN%D  SHND  RN%D  SNN0C  SNN1C                                 
 1992 213    35     0   9.6   0.0   9.6  0.00  3.37 250.8   8.6   1.0  3.37  3.37  0.00  0.63   0.00   0.00
 1992 214    36     1  10.9   0.0  10.9  0.00  3.81 252.7   9.8   1.1  3.81  3.81  0.00  1.06   0.00   0.00
 1992 215    37     2  11.3   0.0  11.3  0.00  3.98 253.7  10.2   1.1  3.98  3.98  0.00  1.35   0.01   0.00
 1992 216    38     3  11.3   0.0  11.3  0.00  3.97 253.8  10.2   1.1  3.97  3.97  0.00  1.31   0.02   0.14
 1992 217    39     4  11.3   0.0  11.3  0.00  3.95 253.9  10.2   1.1  3.95  3.95  0.00  1.20   0.02   0.29
 1992 218    40     5  11.3   0.0  11.3  0.00  3.93 254.1  10.2   1.1  3.93  3.93  0.00  1.21   0.03   0.44
 1992 219    41     6  11.3   0.0  11.3  0.00  3.91 254.2  10.2   1.1  3.91  3.91  0.00  1.15   0.03   0.61
 1992 220    42     7  11.3   0.0  11.3  0.00  3.75 254.3  10.0   1.3  3.75  3.75  0.00  1.12   0.04   0.79
 1992 221    43     8  11.3   0.0  11.3  0.00  3.57 254.6   9.8   1.5  3.57  3.57  0.00  1.13   0.05   0.98
 1992 222    44     9  11.9   0.0  11.9  0.00  3.57 255.4  10.1   1.7  3.57  3.57  0.00  1.12   0.05   1.18
 1992 223    45    10  12.5   0.0  12.5  0.00  3.52 256.1  10.4   2.1  3.52  3.52  0.00  1.08   0.06   1.40
 1992 224    46    11  13.5   0.0  13.5  0.00  3.39 257.2  10.9   2.7  3.39  3.39  0.00  1.05   0.07   1.63
 1992 225    47    12  15.6   0.0  15.6  0.00  3.40 259.4  12.0   3.6  3.40  3.40  0.00  1.03   0.07   1.85
[...]
 DATA PATH      : C:\DSSAT46\Rice\                                              
 TREATMENT 31   : 16_05                     RICER046                            
  
@YEAR DOY   DAS   DAP  CNAD  GNAD  VNAD  GN%D  VN%D  NUPC  LNAD  SNAD  LN%D  SN%D  SHND  RN%D  SNN0C  SNN1C                                 
 2016 241    63     0   9.7   0.0   9.7  0.00  3.40 *****   8.7   1.0  3.40  3.40  0.00  0.71   0.00   0.00
 2016 242    64     1  11.0   0.0  11.0  0.00  3.89 *****   9.9   1.1  3.89  3.89  0.00  1.20   0.00   0.00
 2016 243    65     2  11.3   0.0  11.3  0.00  3.96 *****  10.2   1.1  3.96  3.96  0.00  1.35   0.01   0.00
 2016 244    66     3  11.3   0.0  11.3  0.00  3.95 *****  10.2   1.1  3.95  3.95  0.00  1.30   0.01   0.14
 2016 245    67     4  11.3   0.0  11.3  0.00  3.94 *****  10.1   1.1  3.94  3.94  0.00  1.26   0.02   0.28
 2016 246    68     5  11.3   0.0  11.3  0.00  3.92 *****  10.1   1.1  3.92  3.92  0.00  1.25   0.02   0.43
 2016 247    69     6  11.2   0.0  11.2  0.00  3.90 *****  10.1   1.1  3.90  3.90  0.00  1.27   0.03   0.59
 2016 248    70     7  11.2   0.0  11.2  0.00  3.76 *****  10.0   1.3  3.76  3.76  0.00  1.19   0.03   0.78
 2016 249    71     8  11.2   0.0  11.2  0.00  3.51 *****   9.7   1.5  3.51  3.51  0.00  1.14   0.03   0.97
 2016 250    72     9  11.7   0.0  11.7  0.00  3.49 *****  10.0   1.8  3.49  3.49  0.00  1.08   0.04   1.16
 2016 251    73    10  12.6   0.0  12.6  0.00  3.38 *****  10.3   2.3  3.38  3.38  0.00  1.05   0.04   1.35
 2016 252    74    11  14.2   0.0  14.2  0.00  3.37 *****  11.2   3.0  3.37  3.37  0.00  1.03   0.05   1.53
 2016 253    75    12  16.5   0.0  16.5  0.00  3.37 *****  12.5   4.1  3.37  3.37  0.00  1.04   0.05   1.73
 2016 254    76    13  18.9   0.0  18.9  0.00  3.36 *****  13.7   5.2  3.36  3.36  0.00  1.04   0.06   1.93
 2016 255    77    14  20.4   0.0  20.4  0.00  3.31 *****  14.5   5.9  3.31  3.31  0.00  1.03   0.06   2.15
 2016 256    78    15  23.0   0.0  23.0  0.00  3.30 *****  15.9   7.1  3.30  3.30  0.00  1.04   0.07   2.37
 2016 257    79    16  24.8   0.0  24.8  0.00  3.27 *****  16.9   7.9  3.27  3.27  0.00  1.03   0.07   2.61
 2016 258    80    17  27.6   0.0  27.6  0.00  3.21 *****  18.3   9.3  3.21  3.21  0.00  1.03   0.08   2.85
 2016 259    81    18  29.3   0.0  29.3  0.00  2.98 *****  19.1  10.3  2.98  2.98  0.00  0.99   0.08   2.85
 2016 260    82    19  30.4   0.0  30.4  0.00  2.74 *****  19.4  11.1  2.74  2.74  0.00  0.94   0.10   2.85
 2016 261    83    20  31.2   0.0  31.2  0.00  2.58 *****  19.4  11.9  2.58  2.58  0.00  0.91   0.13   2.85
 2016 262    84    21  31.7   0.0  31.7  0.00  2.46 *****  19.2  12.4  2.46  2.46  0.00  0.89   0.16   2.85
 2016 263    85    22  32.1   0.0  32.1  0.00  2.35 *****  19.0  13.1  2.35  2.35  0.00  0.86   0.21   2.85
 2016 264    86    23  32.6   0.0  32.6  0.00  2.26 *****  18.9  13.8  2.26  2.26  0.00  0.84   0.27   2.85
 2016 265    87    24  33.2   0.0  33.2  0.00  2.20 *****  18.8  14.4  2.20  2.20  0.00  0.83   0.34   2.85
 2016 266    88    25  33.7   0.0  33.7  0.00  2.14 *****  18.7  15.0  2.14  2.14  0.00  0.81   0.42   2.85
 2016 267    89    26  34.7   0.0  34.7  0.00  2.11 *****  18.9  15.8  2.11  2.11  0.00  0.81   0.51   2.85
 2016 268    90    27  35.2   0.0  35.2  0.00  2.07 *****  18.8  16.4  2.07  2.07  0.00  0.81   0.60   2.85
 2016 269    91    28  35.8   0.0  35.8  0.00  2.01 *****  18.7  17.2  2.01  2.01  0.00  0.80   0.71   2.85
 2016 270    92    29  36.3   0.0  36.3  0.00  1.96 *****  18.5  17.8  1.96  1.96  0.00  0.80   0.83   2.85
 2016 271    93    30  36.3   0.0  36.3  0.00  1.89 *****  18.1  18.2  1.89  1.89  0.00  0.78   0.96   2.85
 2016 272    94    31  36.3   0.0  36.3  0.00  1.82 *****  17.7  18.6  1.82  1.82  0.00  0.77   1.10   2.85
 2016 273    95    32  36.3   0.0  36.3  0.00  1.76 *****  17.3  19.0  1.76  1.76  0.00  0.76   1.25   2.85
 2016 274    96    33  36.3   0.0  36.3  0.00  1.72 *****  17.0  19.3  1.72  1.72  0.00  0.76   1.41   2.85
 2016 275    97    34  36.3   0.0  36.3  0.00  1.67 *****  16.7  19.6  1.67  1.67  0.00  0.75   1.58   2.85
 2016 276    98    35  36.3   0.0  36.3  0.00  1.62 *****  16.4  19.9  1.62  1.62  0.00  0.74   1.76   2.85
 2016 277    99    36  36.3   0.0  36.3  0.00  1.58 *****  16.0  20.2  1.58  1.58  0.00  0.74   1.95   2.85
 2016 278   100    37  36.3   0.0  36.3  0.00  1.54 *****  15.8  20.5  1.54  1.54  0.00  0.73   2.14   2.85
 2016 279   101    38  36.3   0.0  36.3  0.00  1.51 *****  15.6  20.7  1.51  1.51  0.00  0.73   2.35   2.85
 2016 280   102    39  36.3   0.0  36.3  0.00  1.49 *****  15.4  20.9  1.49  1.49  0.00  0.73   2.56   2.85
 2016 281   103    40  36.8   0.0  36.8  0.00  1.48 *****  15.4  21.5  1.48  1.48  0.00  0.73   2.79   2.85
 2016 282   104    41  36.8   0.0  36.8  0.00  1.46 *****  15.2  21.7  1.46  1.46  0.00  0.73   3.02   2.85
 2016 283   105    42  36.8   0.0  36.8  0.00  1.42 *****  14.9  21.9  1.42  1.42  0.00  0.72   3.26   2.85
 2016 284   106    43  36.8   0.0  36.8  0.00  1.39 *****  14.7  22.2  1.39  1.39  0.00  0.71   3.51   2.85
 2016 285   107    44  36.8   0.0  36.8  0.00  1.36 *****  14.4  22.4  1.36  1.36  0.00  0.71   3.76   2.85
 2016 286   108    45  36.8   0.0  36.8  0.00  1.34 *****  14.2  22.6  1.34  1.34  0.00  0.71   4.03   2.85
 2016 287   109    46  36.8   0.0  36.8  0.00  1.31 *****  14.0  22.8  1.31  1.31  0.00  0.70   4.30   2.85
 2016 288   110    47  36.8   0.0  36.8  0.00  1.30 *****  13.9  22.9  1.30  1.30  0.00  0.70   4.58   2.85
 2016 289   111    48  36.8   0.0  36.8  0.00  1.28 *****  13.7  23.1  1.28  1.28  0.00  0.70   4.87   2.85
 2016 290   112    49  36.8   0.0  36.8  0.00  1.27 *****  13.6  23.2  1.27  1.27  0.00  0.70   5.17   2.85
 2016 291   113    50  36.8   0.0  36.8  0.00  1.24 *****  13.4  23.4  1.24  1.24  0.00  0.70   5.47   2.85
 2016 292   114    51  36.8   0.0  36.8  0.00  1.23 *****  13.2  23.6  1.23  1.23  0.00  0.69   5.78   2.85
 2016 293   115    52  36.8   0.0  36.8  0.00  1.21 *****  13.0  23.8  1.21  1.21  0.00  0.69   6.10   2.85
 2016 294   116    53  36.8   0.0  36.8  0.00  1.19 *****  12.8  24.0  1.19  1.19  0.00  0.69   6.43   2.85
 2016 295   117    54  36.8   0.0  36.8  0.00  1.17 *****  12.7  24.2  1.17  1.17  0.00  0.68   6.77   2.85
 2016 296   118    55  36.8   0.0  36.8  0.00  1.15 *****  12.5  24.3  1.15  1.15  0.00  0.68   7.11   2.85
 2016 297   119    56  36.8   0.0  36.8  0.00  1.13 *****  12.3  24.5  1.13  1.13  0.00  0.68   7.46   2.85
 2016 298   120    57  37.0   0.0  37.0  0.00  1.13 *****  12.3  24.7  1.13  1.13  0.00  0.68   7.81   2.85
 2016 299   121    58  37.4   0.0  37.4  0.00  1.13 *****  12.3  25.1  1.13  1.13  0.00  0.69   8.18   2.85
 2016 300   122    59  37.7   0.0  37.7  0.00  1.12 *****  12.2  25.5  1.12  1.12  0.00  0.69   8.55   2.85
 2016 301   123    60  38.7   0.0  38.7  0.00  1.14 *****  12.4  26.4  1.14  1.14  0.00  0.71   8.92   2.85
 2016 302   124    61  39.2   0.0  39.2  0.00  1.13 *****  12.3  26.9  1.13  1.13  0.00  0.72   9.29   2.85
 2016 303   125    62  39.7   0.0  39.7  0.00  1.13 *****  12.3  27.4  1.13  1.13  0.00  0.72   9.67   2.85
 2016 304   126    63  40.1   0.0  40.1  0.00  1.12 *****  12.2  27.9  1.12  1.12  0.00  0.73  10.06   2.85
 2016 305   127    64  40.5   0.0  40.5  0.00  1.12 *****  12.1  28.3  1.12  1.12  0.00  0.73  10.45   2.85
 2016 306   128    65  40.8   5.9  34.8  0.45  1.46 *****  15.9  18.9  1.46  1.46  0.00  0.74  10.84   2.85
 2016 307   129    66  40.7   6.0  34.7  0.46  1.39 *****  15.1  19.6  1.39  1.39  0.00  0.92  11.23   3.20
 2016 308   130    67  40.7   6.1  34.6  0.46  1.33 *****  14.4  20.2  1.33  1.33  0.00  0.94  11.62   3.65
 2016 309   131    68  40.7   6.2  34.5  0.46  1.27 *****  13.8  20.7  1.27  1.27  0.00  1.02  12.01   4.10
 2016 310   132    69  40.6   6.2  34.4  0.47  1.22 *****  13.3  21.1  1.22  1.22  0.00  1.01  12.40   4.60
 2016 311   133    70  40.6   7.1  33.4  0.50  1.20 *****  13.0  20.4  1.20  1.20  0.00  1.01  12.80   5.10
 2016 312   134    71  40.5   8.0  32.5  0.52  1.18 *****  12.8  19.8  1.18  1.18  0.00  1.01  13.19   5.60
 2016 313   135    72  40.5   8.9  31.6  0.54  1.15 *****  12.4  19.2  1.15  1.15  0.00  1.02  13.59   6.10
 2016 314   136    73  40.4   9.8  30.6  0.57  1.12 *****  12.1  18.5  1.12  1.12  0.00  1.01  13.99   6.60
 2016 315   137    74  40.4  10.7  29.6  0.59  1.09 *****  11.7  17.9  1.09  1.09  0.00  1.01  14.39   7.11
 2016 316   138    75  40.3  11.7  28.7  0.61  1.05 *****  11.3  17.4  1.05  1.05  0.00  1.02  14.78   7.62
 2016 317   139    76  40.3  12.6  27.7  0.63  1.02 *****  10.9  16.8  1.02  1.02  0.00  1.02  15.18   8.13
 2016 318   140    77  40.3  13.5  26.7  0.64  0.99 *****  10.6  16.2  0.99  0.99  0.00  1.02  15.58   8.65
 2016 319   141    78  40.2  14.5  25.7  0.66  0.96 *****  10.2  15.5  0.96  0.96  0.00  1.02  15.99   9.16
 2016 320   142    79  40.2  15.4  24.8  0.68  0.92 *****   9.8  14.9  0.92  0.92  0.00  1.02  16.39   9.68
 2016 321   143    80  40.1  16.3  23.8  0.69  0.89 *****   9.4  14.3  0.89  0.89  0.00  1.02  16.79  10.20
 2016 322   144    81  40.3  17.3  23.1  0.71  0.86 *****   9.2  13.9  0.86  0.86  0.00  1.02  17.19  10.72
 2016 323   145    82  41.6  18.2  23.4  0.73  0.88 *****   9.3  14.1  0.88  0.88  0.00  1.02  17.60  10.72
 2016 324   146    83  42.8  19.1  23.6  0.74  0.89 *****   9.5  14.2  0.89  0.89  0.00  1.02  18.01  10.72
 2016 325   147    84  43.7  20.0  23.7  0.76  0.91 *****   9.3  14.3  0.91  0.91  0.00  1.02  18.41  10.72
 2016 326   148    85  43.7  20.0  23.7  0.76  0.91 *****   9.3  14.3  0.91  0.91  0.00  1.02  18.41  10.72
 2016 327   149    86  43.7  20.0  23.7  0.76  0.91 *****   9.3  14.3  0.91  0.91  0.00  1.02  18.41  10.72

*DSSAT Cropping System Model Ver. 4.6.1.000 -release      DEC 02, 2018; 12:34:08
                                                                                
*RUN 160        : 17_05                     RICER046 SSKT0005   32              
 MODEL          : RICER046 - Rice                                               
 EXPERIMENT     : SSKT0005 RI mulation, Thailand                                
 DATA PATH      : C:\DSSAT46\Rice\                                              
 TREATMENT 32   : 17_05                     RICER046                            
  
@YEAR DOY   DAS   DAP  CNAD  GNAD  VNAD  GN%D  VN%D  NUPC  LNAD  SNAD  LN%D  SN%D  SHND  RN%D  SNN0C  SNN1C                                 
 2017 241    63     0   8.3   0.0   8.3  0.00  2.91 *****   7.4   0.8  2.91  2.91  0.00  0.27   0.00   0.00
 2017 242    64     1   8.4   0.0   8.4  0.00  2.94 *****   7.5   0.8  2.94  2.94  0.00  0.30   0.00   0.00
 2017 243    65     2   8.4   0.0   8.4  0.00  2.97 *****   7.6   0.8  2.97  2.97  0.00  0.32   0.01   0.00
 2017 244    66     3   8.5   0.0   8.5  0.00  3.00 *****   7.7   0.9  3.00  3.00  0.00  0.33   0.02   0.00
 2017 245    67     4   8.6   0.0   8.6  0.00  3.00 *****   7.7   0.9  3.00  3.00  0.00  0.32   0.03   0.00
 2017 246    68     5   8.7   0.0   8.7  0.00  3.04 *****   7.8   0.9  3.04  3.04  0.00  0.36   0.04   0.00
 2017 247    69     6   8.7   0.0   8.7  0.00  2.99 *****   7.8   1.0  2.99  2.99  0.00  0.37   0.06   0.00
 2017 248    70     7   8.7   0.0   8.7  0.00  2.90 *****   7.7   1.1  2.90  2.90  0.00  0.34   0.08   0.00
 2017 249    71     8   8.8   0.0   8.8  0.00  2.84 *****   7.7   1.2  2.84  2.84  0.00  0.36   0.10   0.00
 2017 250    72     9   8.8   0.0   8.8  0.00  2.73 *****   7.5   1.3  2.73  2.73  0.00  0.34   0.12   0.00
 2017 251    73    10   8.8   0.0   8.8  0.00  2.59 *****   7.3   1.5  2.59  2.59  0.00  0.32   0.15   0.00
 2017 252    74    11   8.8   0.0   8.8  0.00  2.36 *****   7.0   1.9  2.36  2.36  0.00  0.31   0.18   0.00
 2017 253    75    12   8.8   0.0   8.8  0.00  2.20 *****   6.7   2.2  2.20  2.20  0.00  0.31   0.21   0.00
 2017 254    76    13   8.8   0.0   8.8  0.00  2.06 *****   6.4   2.4  2.06  2.06  0.00  0.30   0.25   0.00
 2017 255    77    14   8.8   0.0   8.8  0.00  1.96 *****   6.2   2.6  1.96  1.96  0.00  0.30   0.29   0.00
 2017 256    78    15   8.8   0.0   8.8  0.00  1.87 *****   6.0   2.8  1.87  1.87  0.00  0.29   0.33   0.00
 2017 257    79    16   8.8   0.0   8.8  0.00  1.82 *****   5.9   2.9  1.82  1.82  0.00  0.29   0.37   0.00
 2017 258    80    17   8.8   0.0   8.8  0.00  1.79 *****   5.8   3.0  1.79  1.79  0.00  0.29   0.41   0.00
 2017 259    81    18   8.8   0.0   8.8  0.00  1.73 *****   5.7   3.2  1.73  1.73  0.00  0.29   0.46   0.00
 2017 260    82    19   8.9   0.0   8.9  0.00  1.68 *****   5.6   3.3  1.68  1.68  0.00  0.29   0.51   0.00
 2017 261    83    20   8.9   0.0   8.9  0.00  1.64 *****   5.5   3.4  1.64  1.64  0.00  0.29   0.56   0.00
 2017 262    84    21   8.9   0.0   8.9  0.00  1.60 *****   5.4   3.5  1.60  1.60  0.00  0.29   0.62   0.00
 2017 263    85    22   9.1   0.0   9.1  0.00  1.61 *****   5.4   3.7  1.61  1.61  0.00  0.31   0.67   0.00
 2017 264    86    23   9.1   0.0   9.1  0.00  1.58 *****   5.3   3.8  1.58  1.58  0.00  0.31   0.73   0.00
 2017 265    87    24   9.2   0.0   9.2  0.00  1.56 *****   5.3   3.9  1.56  1.56  0.00  0.31   0.79   0.00
 2017 266    88    25   9.2   0.0   9.2  0.00  1.53 *****   5.2   4.0  1.53  1.53  0.00  0.31   0.86   0.00
 2017 267    89    26   9.2   0.0   9.2  0.00  1.51 *****   5.2   4.0  1.51  1.51  0.00  0.32   0.92   0.00
 2017 268    90    27   9.2   0.0   9.2  0.00  1.49 *****   5.1   4.1  1.49  1.49  0.00  0.32   0.99   0.00
 2017 269    91    28   9.2   0.0   9.2  0.00  1.47 *****   5.0   4.2  1.47  1.47  0.00  0.32   1.06   0.00
 2017 270    92    29   9.2   0.0   9.2  0.00  1.44 *****   4.9   4.3  1.44  1.44  0.00  0.32   1.13   0.00
 2017 271    93    30   9.2   0.0   9.2  0.00  1.42 *****   4.9   4.3  1.42  1.42  0.00  0.32   1.21   0.00
 2017 272    94    31   9.2   0.0   9.2  0.00  1.40 *****   4.8   4.4  1.40  1.40  0.00  0.32   1.28   0.00
 2017 273    95    32   9.2   0.0   9.2  0.00  1.38 *****   4.8   4.4  1.38  1.38  0.00  0.32   1.36   0.00
 2017 274    96    33   9.2   0.0   9.2  0.00  1.36 *****   4.7   4.5  1.36  1.36  0.00  0.32   1.44   0.00
 2017 275    97    34   9.2   0.0   9.2  0.00  1.35 *****   4.7   4.6  1.35  1.35  0.00  0.33   1.53   0.00
 2017 276    98    35   9.2   0.0   9.2  0.00  1.34 *****   4.6   4.6  1.34  1.34  0.00  0.33   1.61   0.00
 2017 277    99    36   9.2   0.0   9.2  0.00  1.32 *****   4.6   4.6  1.32  1.32  0.00  0.33   1.70   0.00
 2017 278   100    37   9.2   0.0   9.2  0.00  1.31 *****   4.5   4.7  1.31  1.31  0.00  0.33   1.78   0.00
 2017 279   101    38   9.2   0.0   9.2  0.00  1.30 *****   4.5   4.7  1.30  1.30  0.00  0.33   1.88   0.00
 2017 280   102    39   9.2   0.0   9.2  0.00  1.29 *****   4.5   4.8  1.29  1.29  0.00  0.34   1.97   0.00
 2017 281   103    40   9.3   0.0   9.3  0.00  1.28 *****   4.4   4.8  1.28  1.28  0.00  0.34   2.06   0.00
 2017 282   104    41   9.3   0.0   9.3  0.00  1.27 *****   4.4   4.9  1.27  1.27  0.00  0.35   2.16   0.00
 2017 283   105    42   9.4   0.0   9.4  0.00  1.27 *****   4.4   5.0  1.27  1.27  0.00  0.35   2.26   0.00
 2017 284   106    43   9.4   0.0   9.4  0.00  1.26 *****   4.4   5.0  1.26  1.26  0.00  0.36   2.36   0.00
 2017 285   107    44   9.7   0.0   9.7  0.00  1.29 *****   4.5   5.2  1.29  1.29  0.00  0.38   2.46   0.00
 2017 286   108    45   9.9   0.0   9.9  0.00  1.30 *****   4.5   5.4  1.30  1.30  0.00  0.40   2.56   0.00
 2017 287   109    46  10.0   0.0  10.0  0.00  1.29 *****   4.5   5.5  1.29  1.29  0.00  0.41   2.67   0.00
 2017 288   110    47  10.0   0.0  10.0  0.00  1.28 *****   4.5   5.6  1.28  1.28  0.00  0.42   2.77   0.00
 2017 289   111    48  10.1   0.0  10.1  0.00  1.27 *****   4.4   5.6  1.27  1.27  0.00  0.42   2.88   0.00
 2017 290   112    49  10.1   0.0  10.1  0.00  1.26 *****   4.4   5.7  1.26  1.26  0.00  0.43   2.99   0.00
 2017 291   113    50  10.2   0.0  10.2  0.00  1.25 *****   4.4   5.8  1.25  1.25  0.00  0.44   3.11   0.00
 2017 292   114    51  10.3   0.0  10.3  0.00  1.25 *****   4.4   5.9  1.25  1.25  0.00  0.44   3.22   0.00
 2017 293   115    52  10.3   0.0  10.3  0.00  1.24 *****   4.3   6.0  1.24  1.24  0.00  0.45   3.34   0.00
 2017 294   116    53  10.4   0.0  10.4  0.00  1.23 *****   4.3   6.1  1.23  1.23  0.00  0.46   3.46   0.00
 2017 295   117    54  10.5   0.0  10.5  0.00  1.22 *****   4.3   6.2  1.22  1.22  0.00  0.47   3.58   0.00
 2017 296   118    55  10.5   0.0  10.5  0.00  1.21 *****   4.3   6.3  1.21  1.21  0.00  0.48   3.70   0.00
 2017 297   119    56  10.6   0.0  10.6  0.00  1.20 *****   4.2   6.3  1.20  1.20  0.00  0.48   3.83   0.00
 2017 298   120    57  10.6   0.0  10.6  0.00  1.19 *****   4.2   6.4  1.19  1.19  0.00  0.49   3.96   0.00
 2017 299   121    58  10.6   0.0  10.6  0.00  1.18 *****   4.2   6.5  1.18  1.18  0.00  0.49   4.08   0.00
 2017 300   122    59  10.6   0.0  10.6  0.00  1.17 *****   4.1   6.5  1.17  1.17  0.00  0.49   4.21   0.00
 2017 301   123    60  10.7   0.0  10.7  0.00  1.16 *****   4.1   6.6  1.16  1.16  0.00  0.50   4.34   0.00
 2017 302   124    61  10.8   0.0  10.8  0.00  1.16 *****   4.1   6.7  1.16  1.16  0.00  0.51   4.47   0.00
 2017 303   125    62  10.9   0.0  10.9  0.00  1.15 *****   4.1   6.8  1.15  1.15  0.00  0.52   4.60   0.00
 2017 304   126    63  11.0   0.0  11.0  0.00  1.15 *****   4.1   6.9  1.15  1.15  0.00  0.54   4.73   0.00
 2017 305   127    64  11.1   0.0  11.1  0.00  1.16 *****   4.1   7.0  1.16  1.16  0.00  0.56   4.86   0.00
 2017 306   128    65  11.4   1.6   9.8  0.54  1.47 *****   5.2   4.6  1.47  1.47  0.00  0.59   4.99   0.00
 2017 307   129    66  11.6   1.9   9.8  0.59  1.44 *****   5.1   4.7  1.44  1.44  0.00  0.65   5.12   0.10
 2017 308   130    67  11.8   2.1   9.8  0.63  1.43 *****   5.1   4.7  1.43  1.43  0.00  0.73   5.25   0.22
 2017 309   131    68  12.0   2.3   9.8  0.68  1.43 *****   5.0   4.7  1.43  1.43  0.00  0.99   5.38   0.35
 2017 310   132    69  12.2   2.5   9.7  0.72  1.41 *****   5.0   4.8  1.41  1.41  0.00  1.01   5.51   0.52
 2017 311   133    70  12.4   2.7   9.7  0.74  1.42 *****   5.0   4.7  1.42  1.42  0.00  1.01   5.64   0.70
 2017 312   134    71  12.6   2.9   9.7  0.75  1.44 *****   5.0   4.7  1.44  1.44  0.00  1.01   5.77   0.87
 2017 313   135    72  12.8   3.1   9.7  0.77  1.45 *****   5.1   4.7  1.45  1.45  0.00  1.01   5.90   1.05
 2017 314   136    73  13.1   3.3   9.7  0.78  1.47 *****   5.1   4.6  1.47  1.47  0.00  1.02   6.04   1.22
 2017 315   137    74  13.3   3.6   9.7  0.79  1.48 *****   5.2   4.6  1.48  1.48  0.00  1.02   6.17   1.40
 2017 316   138    75  13.5   3.8   9.7  0.80  1.50 *****   5.2   4.5  1.50  1.50  0.00  1.02   6.30   1.57
 2017 317   139    76  13.7   4.0   9.7  0.81  1.51 *****   5.2   4.5  1.51  1.51  0.00  1.02   6.43   1.75
 2017 318   140    77  14.0   4.2   9.7  0.82  1.53 *****   5.3   4.5  1.53  1.53  0.00  1.03   6.56   1.92
 2017 319   141    78  14.2   4.5   9.7  0.83  1.55 *****   5.3   4.4  1.55  1.55  0.00  1.03   6.70   2.10
 2017 320   142    79  14.4   4.7   9.7  0.84  1.57 *****   5.4   4.3  1.57  1.57  0.00  1.04   6.83   2.28
 2017 321   143    80  14.7   4.9   9.7  0.86  1.60 *****   5.4   4.3  1.60  1.60  0.00  1.04   6.96   2.45
 2017 322   144    81  14.9   5.2   9.7  0.87  1.62 *****   5.5   4.2  1.62  1.62  0.00  1.05   7.09   2.63
 2017 323   145    82  15.1   5.4   9.7  0.88  1.64 *****   5.6   4.2  1.64  1.64  0.00  1.05   7.23   2.80
 2017 324   146    83  15.3   5.6   9.7  0.89  1.67 *****   5.6   4.1  1.67  1.67  0.00  1.06   7.36   2.98
 2017 325   147    84  15.6   5.8   9.7  0.91  1.69 *****   5.6   4.2  1.69  1.69  0.00  1.06   7.49   3.15
 2017 326   148    85  15.6   5.8   9.7  0.91  1.69 *****   5.6   4.2  1.69  1.69  0.00  1.06   7.49   3.15
 2017 327   149    86  15.6   5.8   9.7  0.91  1.69 *****   5.6   4.2  1.69  1.69  0.00  1.06   7.49   3.15
