*GROWTH ASPECTS OUTPUT FILE

*DSSAT Cropping System Model Ver. 4.6.1.000 -release      DEC 02, 2018; 12:33:06
                                                                                
*RUN   1        : 86_01                     RICER046 SSKT0001    1              
 MODEL          : RICER046 - Rice                                               
 EXPERIMENT     : SSKT0001 RI mulation, Thailand                                
 DATA PATH      : C:\DSSAT46\Rice\                                              
 TREATMENT  1   : 86_01                     RICER046                            
  
!YR        Days  Days              Leaf  <--------- Dry Weight -----------> Grain Kernl              <------ Stress (0-1) ------>   Leaf  Shell  Spec  <-Canopy->  Root  <-- Root Length Density ---><Senesced Mat>   Phot  
!  and    after after  Leaf  Grow  Area  <------------ kg/Ha ------------->   per  wght  Harv Tillr  <--- Water ---->                Nit   -ing  Leaf  Hght Brdth Depth  <---- cm3/cm3 of soil -----> <--(kg/ha)-->  Therm  
!     DOY start plant   Num Stage Index  Leaf  Stem Grain  Root Panic  Crop    m2    mg  Indx   No.  Phot  Grow  Excs  Nitr Potas     %      %   Area    m     m     m    0-5  5-15 15-30 30-4242-100   Surf   Soil   Days  
@YEAR DOY   DAS   DAP  L#SD  GSTD  LAID  LWAD  SWAD  GWAD  RWAD  EWAD  CWAD  G#AD  GWGD  HIAD  T#AD  WSPD  WSGD  EWSD  NSTD  KSTD   LN%D   SH%D  SLAD  CHTD  CWID  RDPD  RL1D  RL2D  RL3D  RL4D  RL5D  SNW0C  SNW1C   DTTD  
 1986 213    35     0   7.0     1  0.24   256    28     0   127     0   284     0   0.0 0.000    33 0.000 0.000 0.000 0.000 0.000   3.20   0.00  93.1  0.00  0.00  0.05  0.84  0.11  0.00  0.00  0.00      0      0  21.59
 1986 214    36     1   8.0     1  0.24   256    28     0   133     0   284     0   0.0 0.000    33 0.000 0.000 0.000 0.293 0.000   3.42   0.00  91.8  0.00  0.00  0.09  0.89  0.11  0.00  0.00  0.00      0      0  19.42
 1986 215    37     2   8.0     1  0.23   256    28     0   141     0   284     0   0.0 0.000    33 0.000 0.000 0.000 0.000 0.000   3.48   0.00  90.5  0.00  0.00  0.12  1.00  0.13  0.00  0.00  0.00      0      0  20.52
 1986 216    38     3   8.0     1  0.23   256    28     0   152     0   285     0   0.0 0.000    33 0.501 0.668 0.000 0.000 0.000   3.80   0.00  89.1  0.00  0.00  0.15  1.13  0.16  0.00  0.00  0.00      1      0  21.47
 1986 217    39     4   8.0     1  0.23   256    28     0   167     0   285     0   0.0 0.000    33 0.000 0.000 0.000 0.000 0.000   3.80   0.00  89.1  0.00  0.00  0.19  1.29  0.20  0.00  0.00  0.00      1     12  20.06
 1986 218    40     5   9.0     1  0.23   257    28     0   179     0   286     0   0.0 0.000    33 0.000 0.000 0.000 0.000 0.000   3.79   0.00  89.6  0.00  0.00  0.23  1.51  0.25  0.02  0.00  0.00      1     25  19.93
 1986 219    41     6   9.0     1  0.23   258    28     0   194     0   287     0   0.0 0.000    33 0.000 0.000 0.000 0.000 0.000   3.77   0.00  90.0  0.00  0.00  0.26  1.68  0.29  0.03  0.00  0.00      1     39  19.72
 1986 220    42     7   9.0     2  0.25   269    37     0   204     0   306     0   0.0 0.000    96 0.000 0.000 0.000 0.000 0.000   3.53   0.00  93.6  0.00  0.00  0.30  1.88  0.33  0.05  0.00  0.00      2     54  18.85
 1986 221    43     8   9.0     2  0.27   282    48     0   214     0   330     0   0.0 0.000   102 0.000 0.000 0.000 0.000 0.000   3.45   0.00  97.0  0.00  0.00  0.33  2.02  0.36  0.06  0.00  0.00      2     70  18.05
 1986 222    44     9  10.0     2  0.31   302    64     0   225     0   366     0   0.0 0.000   111 0.000 0.000 0.000 0.000 0.000   3.42   0.00 101.6  0.00  0.00  0.36  2.14  0.38  0.08  0.01  0.00      2     86  18.90
 1986 223    45    10  10.0     2  0.34   322    81     0   231     0   402     0   0.0 0.000   118 0.000 0.000 0.000 0.000 0.000   3.39   0.00 105.6  0.00  0.00  0.40  2.27  0.41  0.09  0.02  0.00      2    103  18.11
 1986 224    46    11  10.0     2  0.40   357   110     0   245     0   467     0   0.0 0.000   133 0.000 0.000 0.000 0.000 0.000   3.40   0.00 111.6  0.00  0.00  0.43  2.36  0.42  0.10  0.04  0.00      3    121  20.28
 1986 225    47    12  10.0     2  0.44   381   130     0   254     0   512     0   0.0 0.000   141 0.000 0.000 0.000 0.000 0.000   3.38   0.00 115.2  0.00  0.00  0.47  2.51  0.45  0.11  0.06  0.01      3    140  19.65
 1986 226    48    13  10.0     2  0.50   415   159     0   267     0   574     0   0.0 0.000   155 0.000 0.000 0.000 0.000 0.000   3.39   0.00 119.3  0.00  0.00  0.50  2.61  0.47  0.12  0.07  0.01      3    159  21.13
 1986 227    49    14  11.0     2  0.57   461   197     0   285     0   658     0   0.0 0.000   173 0.000 0.000 0.000 0.000 0.000   3.37   0.00 124.1  0.00  0.00  0.54  2.75  0.49  0.13  0.09  0.03      3    180  19.44
 1986 228    50    15  11.0     2  0.64   504   232     0   302     0   737     0   0.0 0.000   189 0.000 0.000 0.000 0.000 0.000   3.36   0.00 127.7  0.00  0.00  0.58  2.93  0.53  0.15  0.11  0.05      4    202  19.20
 1986 229    51    16  11.0     2  0.71   544   265     0   317     0   809     0   0.0 0.000   202 0.000 0.000 0.000 0.000 0.000   3.35   0.00 130.6  0.00  0.00  0.60  3.09  0.56  0.16  0.14  0.07      4    225  18.85
 1986 230    52    17  11.0     2  0.81   606   316     0   342     0   922     0   0.0 0.000   223 0.000 0.000 0.000 0.000 0.000   3.11   0.00 134.3  0.00  0.00  0.62  3.21  0.60  0.17  0.16  0.09      4    250  19.60
 1986 231    53    18  11.0     2  0.90   671   378     0   370     0  1048     0   0.0 0.000   241 0.000 0.000 0.000 0.000 0.000   2.84   0.00 134.3  0.00  0.00  0.63  3.36  0.65  0.20  0.19  0.13      5    250  21.45
 1986 232    54    19  12.0     2  0.95   707   425     0   388     0  1132     0   0.0 0.000   249 0.000 0.000 0.000 0.220 0.000   2.70   0.00 133.9  0.00  0.00  0.66  3.48  0.73  0.22  0.24  0.17      6    250  20.10
 1986 233    55    20  12.0     2  1.00   748   487     0   409     0  1234     0   0.0 0.000   258 0.000 0.000 0.000 0.282 0.000   2.49   0.00 133.7  0.00  0.00  0.67  3.52  0.78  0.24  0.27  0.20      8    250  19.70
 1986 234    56    21  12.0     2  1.03   773   535     0   424     0  1308     0   0.0 0.000   263 0.000 0.000 0.000 0.376 0.000   2.40   0.00 132.7  0.00  0.00  0.71  3.58  0.84  0.26  0.30  0.24     10    250  19.55
 1986 235    57    22  12.0     2  1.04   790   569     0   432     0  1359     0   0.0 0.000   265 0.000 0.000 0.000 0.416 0.000   2.33   0.00 131.3  0.00  0.00  0.74  3.60  0.88  0.28  0.32  0.26     12    250  19.45
 1986 236    58    23  12.0     2  1.06   814   624     0   448     0  1438     0   0.0 0.000   269 0.000 0.000 0.000 0.448 0.000   2.22   0.00 130.3  0.00  0.00  0.78  3.61  0.91  0.29  0.33  0.28     15    250  20.35
 1986 237    59    24  12.0     2  1.06   826   656     0   454     0  1482     0   0.0 0.000   271 0.000 0.000 0.000 0.498 0.000   2.17   0.00 128.8  0.00  0.00  0.82  3.65  0.95  0.30  0.35  0.30     18    250  18.30
 1986 238    60    25  13.0     2  1.07   842   699     0   465     0  1541     0   0.0 0.000   273 0.000 0.000 0.000 0.520 0.000   2.10   0.00 127.4  0.00  0.00  0.85  3.66  0.97  0.31  0.36  0.31     22    250  17.65
 1986 239    61    26  13.0     2  1.08   857   744     0   475     0  1601     0   0.0 0.000   275 0.000 0.000 0.000 0.550 0.000   2.07   0.00 126.0  0.00  0.00  0.88  3.69  1.00  0.32  0.37  0.32     27    250  18.70
 1986 240    62    27  13.0     2  1.08   871   788     0   485     0  1659     0   0.0 0.000   277 0.000 0.000 0.000 0.561 0.000   2.02   0.00 124.5  0.00  0.00  0.91  3.70  1.03  0.33  0.37  0.33     31    250  19.20
 1986 241    63    28  13.0     2  1.08   881   821     0   491     0  1702     0   0.0 0.000   278 0.000 0.000 0.000 0.584 0.000   1.98   0.00 122.9  0.00  0.00  0.95  3.72  1.06  0.33  0.38  0.34     36    250  18.30
 1986 242    64    29  13.0     2  1.09   895   869     0   502     0  1764     0   0.0 0.000   280 0.000 0.000 0.000 0.597 0.000   1.93   0.00 121.5  0.00  0.00  0.98  3.73  1.08  0.34  0.39  0.35     42    250  20.50
 1986 243    65    30  13.0     2  1.09   908   920     0   513     0  1828     0   0.0 0.000   282 0.000 0.000 0.000 0.619 0.000   1.88   0.00 120.0  0.00  0.00  1.00  3.75  1.11  0.35  0.40  0.36     48    250  19.95
 1986 244    66    31  14.0     2  1.09   919   967     0   522     0  1886     0   0.0 0.000   283 0.000 0.000 0.000 0.644 0.000   1.86   0.00 118.5  0.00  0.00  1.00  3.79  1.14  0.35  0.41  0.37     55    250  18.95
 1986 245    67    32  14.0     2  1.08   928  1002     0   528     0  1929     0   0.0 0.000   284 0.000 0.000 0.000 0.651 0.000   1.83   0.00 116.8  0.00  0.00  1.00  3.80  1.17  0.36  0.42  0.38     62    250  18.30
 1986 246    68    33  14.0     2  1.08   937  1042     0   535     0  1979     0   0.0 0.000   285 0.000 0.000 0.000 0.661 0.000   1.80   0.00 115.1  0.00  0.00  1.00  3.81  1.19  0.36  0.42  0.39     70    250  20.70
 1986 247    69    34  14.0     2  1.07   944  1075     0   540     0  2019     0   0.0 0.000   286 0.000 0.000 0.000 0.673 0.000   1.78   0.00 113.4  0.00  0.00  1.00  3.83  1.21  0.37  0.43  0.39     78    250  18.75
 1986 248    70    35  14.0     2  1.06   950  1103     0   543     0  2052     0   0.0 0.000   287 0.000 0.000 0.000 0.680 0.000   1.77   0.00 111.6  0.00  0.00  1.00  3.84  1.23  0.37  0.43  0.40     87    250  17.80
 1986 249    71    36  14.0     2  1.05   956  1132     0   547     0  2088     0   0.0 0.000   288 0.000 0.000 0.000 0.683 0.000   1.78   0.00 109.8  0.00  0.00  1.00  3.85  1.24  0.37  0.44  0.40     96    250  19.10
 1986 250    72    37  14.0     2  1.04   962  1162     0   550     0  2124     0   0.0 0.000   288 0.000 0.000 0.000 0.676 0.000   1.77   0.00 108.0  0.00  0.00  1.00  3.85  1.26  0.38  0.44  0.41    106    250  18.40
 1986 251    73    38  15.0     2  1.03   968  1192     0   554     0  2160     0   0.0 0.000   289 0.000 0.000 0.000 0.680 0.000   1.76   0.00 106.2  0.00  0.00  1.00  3.86  1.27  0.38  0.45  0.41    117    250  18.15
 1986 252    74    39  15.0     2  1.02   973  1218     0   556     0  2191     0   0.0 0.000   290 0.000 0.000 0.000 0.683 0.000   1.75   0.00 104.4  0.00  0.00  1.00  3.87  1.29  0.38  0.45  0.42    128    250  18.00
 1986 253    75    40  15.0     2  1.00   978  1242     0   558     0  2220     0   0.0 0.000   290 0.000 0.000 0.000 0.684 0.000   1.74   0.00 102.6  0.00  0.00  1.00  3.87  1.30  0.38  0.45  0.42    139    250  17.25
 1986 254    76    41  15.0     2  0.99   985  1278     0   563     0  2264     0   0.0 0.000   292 0.000 0.000 0.000 0.684 0.000   1.73   0.00 100.9  0.00  0.00  1.00  3.88  1.31  0.38  0.46  0.43    151    250  18.10
 1986 255    77    42  15.0     2  0.98   992  1312     0   568     0  2304     0   0.0 0.000   293 0.000 0.000 0.000 0.690 0.000   1.71   0.00  99.2  0.00  0.00  1.00  3.90  1.33  0.39  0.46  0.43    164    250  19.45
 1986 256    78    43  15.0     2  0.97   999  1345     0   572     0  2344     0   0.0 0.000   294 0.000 0.000 0.000 0.695 0.000   1.71   0.00  97.5  0.00  0.00  1.00  3.92  1.35  0.39  0.47  0.44    177    250  19.60
 1986 257    79    44  15.0     3  0.96  1004  1386     0   575     0  2391     0   0.0 0.000   261 0.000 0.000 0.000 0.689 0.000   1.70   0.00  95.8  0.00  0.00  1.00  3.93  1.37  0.39  0.47  0.44    191    250  20.10
 1986 258    80    45  16.0     3  0.95  1011  1430     0   578     0  2441     0   0.0 0.000   233 0.000 0.000 0.000 0.688 0.000   1.68   0.00  94.1  0.00  0.00  1.00  3.93  1.39  0.39  0.48  0.45    205    250  20.55
 1986 259    81    46  16.0     3  0.94  1016  1472     0   581     0  2489     0   0.0 0.000   208 0.000 0.000 0.000 0.694 0.000   1.66   0.00  92.5  0.00  0.00  1.00  3.95  1.40  0.39  0.48  0.45    220    250  19.75
 1986 260    82    47  16.0     3  0.93  1021  1510     0   583     0  2531     0   0.0 0.000   187 0.000 0.000 0.000 0.695 0.000   1.67   0.00  90.7  0.00  0.00  1.00  3.96  1.41  0.39  0.49  0.46    235    250  20.20
 1986 261    83    48  16.0     3  0.91  1025  1543     0   584     0  2568     0   0.0 0.000   168 0.000 0.000 0.000 0.685 0.000   1.66   0.00  88.9  0.00  0.00  1.00  3.97  1.43  0.39  0.49  0.46    251    250  19.25
 1986 262    84    49  16.0     3  0.90  1031  1584     0   586     0  2615     0   0.0 0.000   151 0.000 0.000 0.000 0.683 0.000   1.65   0.00  87.2  0.00  0.00  1.00  3.97  1.44  0.39  0.49  0.47    268    250  18.65
 1986 263    85    50  16.0     3  0.89  1036  1626     0   589     0  2663     0   0.0 0.000   136 0.000 0.000 0.000 0.681 0.000   1.66   0.00  85.5  0.00  0.00  1.00  3.98  1.45  0.40  0.50  0.47    285    250  18.30
 1986 264    86    51  16.0     3  0.88  1043  1673     0   592     0  2716     0   0.0 0.000   123 0.000 0.000 0.000 0.658 0.000   1.64   0.00  84.0  0.00  0.00  1.00  3.99  1.47  0.40  0.50  0.47    303    250  17.45
 1986 265    87    52  16.0     3  0.86  1048  1707     0   593     0  2754     0   0.0 0.000   111 0.000 0.000 0.000 0.653 0.000   1.64   0.00  82.2  0.00  0.00  1.00  4.00  1.48  0.40  0.51  0.48    322    250  17.80
 1986 266    88    53  17.0     3  0.85  1052  1740     0   594     0  2792     0   0.0 0.000   102 0.000 0.000 0.000 0.639 0.000   1.65   0.00  80.4  0.00  0.00  1.00  4.01  1.50  0.40  0.51  0.48    341    250  18.90
 1986 267    89    54  17.0     3  0.83  1059  1781     0   597     0  2840     0   0.0 0.000    93 0.000 0.000 0.000 0.613 0.000   1.64   0.00  78.9  0.00  0.00  1.00  4.01  1.51  0.40  0.51  0.49    360    250  17.65
 1986 268    90    55  17.0     3  0.83  1066  1829     0   601     0  2895     0   0.0 0.000    86 0.000 0.000 0.000 0.600 0.000   1.63   0.00  77.4  0.00  0.00  1.00  4.02  1.52  0.40  0.52  0.49    380    250  19.00
 1986 269    91    56  17.0     3  0.82  1074  1880     0   605     0  2955     0   0.0 0.000    80 0.000 0.000 0.000 0.587 0.000   1.61   0.00  76.0  0.00  0.00  1.00  4.03  1.54  0.40  0.52  0.50    401    250  18.60
 1986 270    92    57  17.0     3  0.81  1082  1930     0   609     0  3012     0   0.0 0.000    75 0.000 0.000 0.000 0.585 0.000   1.60   0.00  74.5  0.00  0.00  1.00  4.05  1.56  0.40  0.53  0.50    423    250  19.40
 1986 271    93    58  17.0     3  0.79  1088  1975     0   612     0  3063     0   0.0 0.000    70 0.000 0.000 0.000 0.582 0.000   1.60   0.00  72.9  0.00  0.00  1.00  4.08  1.58  0.40  0.53  0.51    445    250  19.00
 1986 272    94    59  17.0     3  0.78  1093  2010     0   613     0  3102     0   0.0 0.000    66 0.000 0.000 0.000 0.565 0.000   1.59   0.00  71.1  0.00  0.00  1.00  4.09  1.60  0.40  0.54  0.51    468    250  17.60
 1986 273    95    60  17.0     3  0.76  1098  2051     0   616     0  3149     0   0.0 0.000    62 0.000 0.000 0.000 0.557 0.000   1.59   0.00  69.5  0.00  0.00  1.00  4.09  1.61  0.40  0.54  0.52    491    250  17.50
 1986 274    96    61  17.0     3  0.75  1104  2093     0   618     0  3197     0   0.0 0.000    59 0.000 0.000 0.000 0.549 0.000   1.57   0.00  67.8  0.00  0.00  1.00  4.10  1.63  0.40  0.54  0.52    515    250  17.60
 1986 275    97    62  18.0     3  0.73  1108  2127     0   619     0  3235     0   0.0 0.000    56 0.000 0.000 0.000 0.544 0.000   1.55   0.00  66.0  0.00  0.00  1.00  4.17  1.64  0.40  0.54  0.52    540    250  17.10
 1986 276    98    63  18.0     3  0.72  1114  2174     0   622     0  3289     0   0.0 0.000    53 0.000 0.000 0.000 0.542 0.000   1.53   0.00  64.5  0.00  0.00  1.00  4.24  1.65  0.40  0.54  0.52    565    250  18.10
 1986 277    99    64  18.0     3  0.70  1121  2221     0   625     0  3341     0   0.0 0.000    51 0.000 0.000 0.000 0.545 0.000   1.51   0.00  62.9  0.00  0.00  1.00  4.39  1.65  0.40  0.54  0.52    591    250  18.50
 1986 278   100    65  18.0     3  0.69  1127  2266     0   628     0  3393     0   0.0 0.000    49 0.000 0.000 0.000 0.547 0.000   1.48   0.00  61.3  0.00  0.00  1.00  4.46  1.67  0.41  0.54  0.52    618    250  18.50
 1986 279   101    66  18.0     3  0.68  1133  2316     0   632     0  3450     0   0.0 0.000    47 0.000 0.000 0.000 0.548 0.000   1.46   0.00  59.8  0.00  0.00  1.00  4.53  1.70  0.41  0.54  0.52    645    250  18.30
 1986 280   102    67  18.0     3  0.66  1139  2361     0   635     0  3500     0   0.0 0.000    46 0.000 0.000 0.000 0.550 0.000   1.44   0.00  58.1  0.00  0.00  1.00  4.61  1.73  0.41  0.54  0.52    673    250  18.75
 1986 281   103    68  18.0     3  0.65  1146  2409     0   638     0  3555     0   0.0 0.000    44 0.000 0.000 0.000 0.550 0.000   1.41   0.00  56.6  0.00  0.00  1.00  4.67  1.75  0.41  0.54  0.52    702    250  18.70
 1986 282   104    69  18.0     3  0.63  1151  2451     0   640     0  3602     0   0.0 0.000    43 0.000 0.000 0.000 0.550 0.000   1.40   0.00  54.9  0.00  0.00  1.00  4.74  1.77  0.41  0.54  0.52    731    250  18.60
 1986 283   105    70  19.0     3  0.62  1157  2495     0   643     0  3652     0   0.0 0.000    42 0.000 0.000 0.000 0.547 0.000   1.38   0.00  53.3  0.00  0.00  1.00  4.79  1.79  0.41  0.54  0.51    761    250  18.00
 1986 284   106    71  19.0     3  0.59  1159  2536     0   644     0  3695     0   0.0 0.000    41 0.000 0.000 0.000 0.546 0.000   1.36   0.00  51.3  0.00  0.00  1.00  4.84  1.81  0.41  0.54  0.51    792    250  17.70
 1986 285   107    72  19.0     3  0.57  1160  2563     0   643     0  3723     0   0.0 0.000    40 0.000 0.000 0.000 0.542 0.000   1.35   0.00  49.1  0.00  0.00  1.00  4.88  1.83  0.41  0.54  0.51    823    250  16.70
 1986 286   108    73  19.0     3  0.55  1162  2600     0   643     0  3762     0   0.0 0.000    39 0.000 0.000 0.000 0.532 0.000   1.34   0.00  47.1  0.00  0.00  1.00  4.90  1.83  0.41  0.53  0.51    855    250  17.40
 1986 287   109    74  19.0     3  0.52  1164  2638     0   644     0  3801     0   0.0 0.000    39 0.000 0.000 0.000 0.524 0.000   1.32   0.00  45.0  0.00  0.00  1.00  4.93  1.84  0.41  0.53  0.51    888    250  18.45
 1986 288   110    75  19.0     3  0.50  1165  2675     0   644     0  3840     0   0.0 0.000    38 0.000 0.000 0.000 0.516 0.000   1.31   0.00  43.0  0.00  0.00  1.00  4.97  1.85  0.41  0.53  0.51    921    250  19.25
 1986 289   111    76  19.0     3  0.48  1168  2716     0   646     0  3883     0   0.0 0.000    38 0.000 0.000 0.000 0.507 0.000   1.30   0.00  41.0  0.00  0.00  1.00  5.00  1.86  0.41  0.53  0.51    955    250  19.45
 1986 290   112    77  19.0     3  0.45  1169  2748     0   645     0  3917     0   0.0 0.000    37 0.000 0.000 0.000 0.499 0.000   1.28   0.00  38.9  0.00  0.00  1.00  5.04  1.87  0.41  0.53  0.51    990    250  19.15
 1986 291   113    78  19.0     3  0.41  1171  2786     0   646     0  3957     0   0.0 0.000    37 0.000 0.000 0.000 0.486 0.000   1.27   0.00  35.3  0.00  0.00  1.00  5.06  1.88  0.41  0.53  0.50   1026    250  19.45
 1986 292   114    79  19.0     3  0.38  1173  2827     0   647     0  4000     0   0.0 0.000    36 0.000 0.000 0.000 0.475 0.000   1.26   0.00  32.2  0.00  0.00  1.00  5.09  1.89  0.41  0.52  0.50   1063    250  19.60
 1986 293   115    80  19.0     4  0.37  1173  2866     0   648     0  4038     0   0.0 0.000    36 0.000 0.000 0.000 0.464 0.000   1.25   0.00  31.7  0.00  0.00  1.00  5.13  1.89  0.41  0.52  0.50   1100    250  18.85
 1986 294   116    81  19.0     4  0.37  1173  2906     0   648     0  4079     0   0.0 0.000    36 0.000 0.000 0.000 0.453 0.000   1.23   0.00  31.2  0.00  0.00  1.00  5.16  1.90  0.41  0.52  0.50   1138    250  18.85
 1986 295   117    82  19.0     4  0.36  1172  2927     0   646     0  4100     0   0.0 0.000    36 0.000 0.000 0.000 0.447 0.000   1.24   0.00  30.7  0.00  0.00  1.00  5.19  1.91  0.41  0.52  0.50   1175    250  15.30
 1986 296   118    83  19.0     4  0.35  1172  2958     0   645     0  4130     0   0.0 0.000    36 0.000 0.000 0.000 0.409 0.000   1.23   0.00  30.3  0.00  0.00  1.00  5.20  1.90  0.41  0.52  0.50   1213    250  16.95
 1986 297   119    84  19.0     4  0.35  1172  2999     0   645     0  4171     0   0.0 0.000    36 0.000 0.000 0.000 0.391 0.000   1.22   0.00  29.9  0.00  0.00  1.00  5.22  1.91  0.41  0.52  0.50   1250    250  18.75
 1986 298   120    85  19.0     4  0.35  1172  3029     0   644     0  4201     0   0.0 0.000    36 0.000 0.000 0.000 0.376 0.000   1.21   0.00  29.5  0.00  0.00  1.00  5.26  1.92  0.41  0.52  0.50   1288    250  18.35
 1986 299   121    86  19.0     4  0.34  1172  3069     0   645     0  4241     0   0.0 0.000    36 0.000 0.000 0.000 0.353 0.000   1.20   0.00  29.1  0.00  0.00  1.00  5.28  1.93  0.41  0.52  0.49   1326    250  19.40
 1986 300   122    87  19.0     5  0.34  1172  1557   835   644  1561  4290  3094  50.4 0.195    36 0.000 0.000 0.000 0.000 0.000   1.53  53.52  28.9  0.00  0.00  1.00  5.32  1.94  0.41  0.52  0.49   1364    250  19.00
 1986 301   123    88  19.0     5  0.34  1160  1488   973   644  1698  4345  3602  47.1 0.224    36 0.000 0.000 0.000 0.000 0.000   1.53  57.28  29.1  0.00  0.00  1.00  5.33  1.95  0.41  0.51  0.49   1402    250  19.70
 1986 302   124    89  19.0     5  0.33  1148  1425  1088   642  1813  4387  4030  45.0 0.248    36 0.000 0.000 0.000 0.000 0.000   1.53  60.00  29.2  0.00  0.00  1.00  5.35  1.96  0.41  0.51  0.49   1440    250  17.10
 1986 303   125    90  19.0     5  0.33  1142  1386  1192   642  1917  4445  4415  43.4 0.268    36 0.000 0.000 0.000 0.000 0.000   1.51  62.17  29.1  0.00  0.00  1.00  5.36  1.97  0.41  0.51  0.49   1478    250  15.80
 1986 304   126    91  19.0     5  0.33  1136  1353  1294   642  2019  4507  4791  42.1 0.287    36 0.000 0.000 0.000 0.000 0.000   1.49  64.07  29.1  0.00  0.00  1.00  5.38  1.98  0.41  0.51  0.49   1516    250  15.85
 1986 305   127    92  19.0     5  0.33  1129  1315  1398   642  2123  4566  5176  41.0 0.306    36 0.000 0.000 0.000 0.000 0.000   1.48  65.83  29.1  0.00  0.00  1.00  5.40  1.99  0.41  0.51  0.49   1555    250  16.60
 1986 306   128    93  19.0     5  0.33  1123  1281  1498   643  2223  4627  5548  40.1 0.324    36 0.000 0.000 0.000 0.000 0.000   1.45  67.37  29.0  0.00  0.00  1.00  5.41  2.00  0.41  0.51  0.49   1593    250  16.45
 1986 307   129    94  19.0     5  0.32  1116  1244  1599   643  2324  4684  5922  39.2 0.341    36 0.000 0.000 0.000 0.000 0.000   1.43  68.79  29.0  0.00  0.00  1.00  5.43  2.01  0.41  0.51  0.49   1631    250  17.00
 1986 308   130    95  19.0     5  0.32  1110  1211  1695   643  2420  4741  6276  38.6 0.357    36 0.000 0.000 0.000 0.000 0.000   1.41  70.03  28.9  0.00  0.00  1.00  5.44  2.02  0.41  0.51  0.49   1670    250  16.50
 1986 309   131    96  19.0     5  0.32  1105  1179  1787   642  2513  4796  6619  38.0 0.373    36 0.000 0.000 0.000 0.000 0.000   1.38  71.13  28.8  0.00  0.00  1.00  5.45  2.03  0.41  0.50  0.48   1708    250  16.40
 1986 310   132    97  19.0     5  0.32  1098  1144  1880   642  2605  4848  6962  37.4 0.388    36 0.000 0.000 0.000 0.000 0.000   1.36  72.16  28.7  0.00  0.00  1.00  5.46  2.03  0.41  0.50  0.48   1747    250  16.85
 1986 311   133    98  19.0     5  0.31  1092  1108  1972   641  2698  4897  7305  36.9 0.403    36 0.000 0.000 0.000 0.000 0.000   1.33  73.11  28.6  0.00  0.00  1.00  5.46  2.04  0.41  0.50  0.48   1785    250  17.25
 1986 312   134    99  19.0     5  0.31  1085  1071  2061   639  2786  4943  7633  36.5 0.417    36 0.000 0.000 0.000 0.000 0.000   1.30  73.97  28.5  0.00  0.00  1.00  5.47  2.04  0.41  0.50  0.48   1824    250  17.00
 1986 313   135   100  19.0     5  0.31  1079  1033  2146   638  2872  4984  7950  36.1 0.431    36 0.000 0.000 0.000 0.000 0.000   1.28  74.74  28.4  0.00  0.00  1.00  5.47  2.05  0.41  0.50  0.48   1863    250  16.80
 1986 314   136   101  19.0     5  0.30  1074  1008  2218   636  2944  5026  8216  35.8 0.441    36 0.000 0.000 0.000 0.000 0.000   1.25  75.36  28.3  0.00  0.00  1.00  5.47  2.05  0.41  0.50  0.48   1902    250  14.55
 1986 315   137   102  19.0     5  0.30  1068   974  2288   633  3014  5055  8475  35.6 0.453    36 0.000 0.000 0.000 0.000 0.000   1.22  75.93  28.1  0.00  0.00  1.00  5.47  2.05  0.41  0.49  0.47   1941    250  14.45
 1986 316   138   103  19.0     5  0.30  1060   929  2364   629  3089  5078  8755  35.3 0.466    36 0.000 0.000 0.000 0.000 0.000   1.20  76.52  28.0  0.00  0.00  1.00  5.46  2.05  0.40  0.49  0.47   1980    250  15.95
 1986 317   139   104  19.0     5  0.29  1053   889  2438   626  3163  5104  9028  35.0 0.478    36 0.000 0.000 0.000 0.000 0.000   1.17  77.07  27.9  0.00  0.00  1.00  5.45  2.04  0.40  0.49  0.47   2019    250  16.00
 1986 318   140   105  19.0     5  0.29  1044   842  2519   622  3244  5131  9328  34.8 0.491    36 0.000 0.000 0.000 0.000 0.000   1.14  77.64  27.8  0.00  0.00  1.00  5.44  2.04  0.40  0.49  0.47   2058    250  18.00
 1986 319   141   106  19.0     5  0.29  1037   799  2597   619  3322  5158  9617  34.5 0.503    36 0.000 0.000 0.000 0.000 0.000   1.11  78.16  27.6  0.00  0.00  1.00  5.43  2.04  0.40  0.48  0.47   2097    250  17.80
 1986 320   142   107  19.0     5  0.28  1037   799  2626   616  3352  5188  9727  34.5 0.506    36 0.000 0.000 0.000 0.000 0.000   1.09  78.36  27.2  0.00  0.00  1.00  5.42  2.03  0.40  0.48  0.46   2137    250  17.25
 1986 321   143   108  19.0     6  0.28  1037   799  2626   616  3352  5188  9727  34.5 0.506    36 0.000 0.000 0.000 0.000 0.000   1.09  78.36  27.2  0.00  0.00  1.00  5.41  2.03  0.40  0.48  0.46   2137    250  15.50
 1986 322   144   109  19.0    20  0.28  1037   799  2626   616  3352  5188  9727  34.5 0.506    36 0.000 0.000 0.000 0.000 0.000   1.09  78.36  27.2  0.00  0.00  1.00  5.40  2.03  0.39  0.48  0.46   2137    250   0.00

*DSSAT Cropping System Model Ver. 4.6.1.000 -release      DEC 02, 2018; 12:33:07
                                                                                
*RUN   2        : 87_01                     RICER046 SSKT0001    2              
 MODEL          : RICER046 - Rice                                               
 EXPERIMENT     : SSKT0001 RI mulation, Thailand                                
 DATA PATH      : C:\DSSAT46\Rice\                                              
 TREATMENT  2   : 87_01                     RICER046                            
  
!YR        Days  Days              Leaf  <--------- Dry Weight -----------> Grain Kernl              <------ Stress (0-1) ------>   Leaf  Shell  Spec  <-Canopy->  Root  <-- Root Length Density ---><Senesced Mat>   Phot  
!  and    after after  Leaf  Grow  Area  <------------ kg/Ha ------------->   per  wght  Harv Tillr  <--- Water ---->                Nit   -ing  Leaf  Hght Brdth Depth  <---- cm3/cm3 of soil -----> <--(kg/ha)-->  Therm  
!     DOY start plant   Num Stage Index  Leaf  Stem Grain  Root Panic  Crop    m2    mg  Indx   No.  Phot  Grow  Excs  Nitr Potas     %      %   Area    m     m     m    0-5  5-15 15-30 30-4242-100   Surf   Soil   Days  
@YEAR DOY   DAS   DAP  L#SD  GSTD  LAID  LWAD  SWAD  GWAD  RWAD  EWAD  CWAD  G#AD  GWGD  HIAD  T#AD  WSPD  WSGD  EWSD  NSTD  KSTD   LN%D   SH%D  SLAD  CHTD  CWID  RDPD  RL1D  RL2D  RL3D  RL4D  RL5D  SNW0C  SNW1C   DTTD  
 1987 213    35     0   7.0     1  0.24   256    28     0   126     0   284     0   0.0 0.000    33 0.000 0.000 0.000 0.000 0.000   3.29   0.00  93.1  0.00  0.00  0.05  0.84  0.11  0.00  0.00  0.00      0      0  20.65
 1987 214    36     1   8.0     1  0.24   256    28     0   132     0   284     0   0.0 0.000    33 0.000 0.000 0.000 0.265 0.000   3.69   0.00  91.8  0.00  0.00  0.09  0.88  0.11  0.00  0.00  0.00      0      0  18.70
 1987 215    37     2   8.0     1  0.23   256    28     0   142     0   285     0   0.0 0.000    33 0.000 0.043 0.000 0.000 0.000   3.95   0.00  89.9  0.00  0.00  0.12  0.98  0.14  0.00  0.00  0.00      0      0  20.74
 1987 216    38     3   8.0     1  0.23   256    28     0   152     0   285     0   0.0 0.000    33 0.000 0.000 0.000 0.000 0.000   3.94   0.00  90.1  0.00  0.00  0.16  1.11  0.18  0.00  0.00  0.00      1     11  21.21
 1987 217    39     4   8.0     1  0.23   257    28     0   169     0   285     0   0.0 0.000    33 0.000 0.000 0.000 0.000 0.000   3.94   0.00  90.2  0.00  0.00  0.20  1.24  0.23  0.01  0.00  0.00      1     23  20.39
 1987 218    40     5   9.0     1  0.23   258    28     0   186     0   286     0   0.0 0.000    33 0.000 0.000 0.000 0.000 0.000   3.92   0.00  90.5  0.00  0.00  0.23  1.45  0.29  0.02  0.00  0.00      1     36  20.25
 1987 219    41     6   9.0     1  0.23   258    28     0   211     0   287     0   0.0 0.000    33 0.000 0.000 0.000 0.000 0.000   3.91   0.00  90.7  0.00  0.00  0.27  1.65  0.35  0.05  0.00  0.00      1     51  20.23
 1987 220    42     7   9.0     2  0.26   274    42     0   228     0   316     0   0.0 0.000   121 0.000 0.000 0.000 0.000 0.000   3.55   0.00  95.7  0.00  0.00  0.31  1.92  0.43  0.08  0.00  0.00      1     68  19.45
 1987 221    43     8   9.0     2  0.29   289    54     0   239     0   343     0   0.0 0.000   128 0.000 0.000 0.000 0.000 0.000   3.45   0.00  99.4  0.00  0.00  0.34  2.11  0.48  0.11  0.01  0.00      2     85  19.15
 1987 222    44     9  10.0     2  0.32   310    72     0   251     0   382     0   0.0 0.000   137 0.000 0.000 0.000 0.000 0.000   3.23   0.00 104.0  0.00  0.00  0.38  2.23  0.51  0.13  0.02  0.00      2    104  19.29
 1987 223    45    10  10.0     2  0.37   344   100     0   264     0   444     0   0.0 0.000   144 0.000 0.000 0.000 0.000 0.000   2.84   0.00 108.4  0.00  0.00  0.41  2.32  0.55  0.15  0.04  0.00      2    104  11.53
 1987 224    46    11  10.0     2  0.40   367   131     0   275     0   498     0   0.0 0.000   145 0.000 0.000 0.000 0.245 0.000   2.77   0.00 110.2  0.00  0.00  0.43  2.46  0.58  0.16  0.07  0.00      3    104   7.17
 1987 225    47    12  10.0     2  0.44   391   168     0   287     0   560     0   0.0 0.000   150 0.000 0.000 0.000 0.277 0.000   2.49   0.00 112.1  0.00  0.00  0.44  2.50  0.62  0.18  0.09  0.00      3    104  16.20
 1987 226    48    13  10.0     2  0.46   409   204     0   298     0   613     0   0.0 0.000   150 0.000 0.186 0.000 0.402 0.000   2.30   0.00 112.7  0.00  0.00  0.47  2.55  0.66  0.21  0.13  0.01      4    104   3.42
 1987 227    49    14  10.0     2  0.47   417   223     0   302     0   640     0   0.0 0.000   151 0.000 0.000 0.000 0.489 0.000   2.88   0.00 112.0  0.00  0.00  0.48  2.67  0.69  0.22  0.14  0.02      5    104  20.60
 1987 228    50    15  10.0     2  0.49   434   245     0   308     0   679     0   0.0 0.000   155 0.000 0.000 0.000 0.221 0.000   3.21   0.00 112.3  0.00  0.00  0.52  2.72  0.70  0.22  0.15  0.03      7    104  18.23
 1987 229    51    16  11.0     2  0.53   462   268     0   318     0   730     0   0.0 0.000   162 0.000 0.000 0.000 0.000 0.000   3.32   0.00 113.8  0.00  0.00  0.55  2.79  0.71  0.23  0.16  0.04      8    104  18.26
 1987 230    52    17  11.0     2  0.58   494   295     0   330     0   790     0   0.0 0.000   173 0.000 0.000 0.000 0.000 0.000   3.28   0.00 116.9  0.00  0.00  0.58  2.87  0.74  0.24  0.18  0.06     10    104  19.85
 1987 231    53    18  11.0     2  0.66   549   346     0   353     0   894     0   0.0 0.000   193 0.000 0.000 0.000 0.000 0.000   3.02   0.00 121.1  0.00  0.00  0.62  2.95  0.77  0.25  0.20  0.07     12    104  20.50
 1987 232    54    19  11.0     2  0.74   602   389     0   373     0   991     0   0.0 0.000   206 0.000 0.000 0.000 0.000 0.000   2.82   0.00 123.1  0.00  0.00  0.65  3.06  0.83  0.27  0.23  0.11     13    104  19.90
 1987 233    55    20  11.0     2  0.77   625   421     0   383     0  1045     0   0.0 0.000   210 0.000 0.000 0.000 0.235 0.000   2.73   0.00 122.8  0.00  0.00  0.69  3.13  0.89  0.29  0.26  0.14     16    104  20.40
 1987 234    56    21  11.0     2  0.79   646   452     0   392     0  1098     0   0.0 0.000   215 0.000 0.000 0.000 0.269 0.000   2.62   0.00 122.2  0.00  0.00  0.73  3.14  0.92  0.30  0.28  0.16     18    104  19.20
 1987 235    57    22  12.0     2  0.81   669   489     0   404     0  1158     0   0.0 0.000   219 0.000 0.000 0.000 0.317 0.000   2.49   0.00 121.7  0.00  0.00  0.76  3.24  0.94  0.31  0.29  0.17     21    104  18.35
 1987 236    58    23  12.0     2  0.83   687   523     0   413     0  1210     0   0.0 0.000   222 0.000 0.000 0.000 0.379 0.000   2.38   0.00 120.9  0.00  0.00  0.79  3.26  0.97  0.31  0.30  0.18     25    104  19.85
 1987 237    59    24  12.0     2  0.84   704   559     0   422     0  1263     0   0.0 0.000   225 0.000 0.000 0.000 0.425 0.000   2.28   0.00 120.0  0.00  0.00  0.83  3.30  1.01  0.31  0.30  0.19     28    104  17.20
 1987 238    60    25  12.0     2  0.86   722   601     0   433     0  1323     0   0.0 0.000   229 0.000 0.000 0.000 0.470 0.000   2.18   0.00 119.1  0.00  0.00  0.86  3.37  1.06  0.32  0.30  0.19     33    104  18.80
 1987 239    61    26  12.0     2  0.88   741   653     0   446     0  1394     0   0.0 0.000   231 0.000 0.000 0.000 0.516 0.000   2.07   0.00 118.3  0.00  0.00  0.90  3.44  1.11  0.33  0.31  0.20     37    104  18.95
 1987 240    62    27  13.0     2  0.89   757   704     0   459     0  1461     0   0.0 0.000   233 0.000 0.000 0.000 0.567 0.000   1.97   0.00 117.2  0.00  0.00  0.93  3.52  1.18  0.33  0.31  0.20     42    104  19.45
 1987 241    63    28  13.0     2  0.89   770   750     0   469     0  1519     0   0.0 0.000   235 0.000 0.000 0.000 0.609 0.000   1.90   0.00 116.0  0.00  0.00  0.96  3.60  1.24  0.34  0.32  0.20     47    104  19.20
 1987 242    64    29  13.0     2  0.89   780   791     0   477     0  1571     0   0.0 0.000   236 0.000 0.000 0.000 0.643 0.000   1.83   0.00 114.6  0.00  0.00  1.00  3.66  1.29  0.34  0.32  0.21     53    104  20.25
 1987 243    65    30  13.0     2  0.89   786   822     0   482     0  1608     0   0.0 0.000   237 0.000 0.000 0.000 0.671 0.000   1.79   0.00 112.9  0.00  0.00  1.00  3.72  1.33  0.34  0.32  0.21     59    104  20.40
 1987 244    66    31  13.0     2  0.88   792   850     0   485     0  1642     0   0.0 0.000   237 0.000 0.000 0.000 0.689 0.000   1.75   0.00 111.2  0.00  0.00  1.00  3.75  1.35  0.35  0.32  0.21     66    104  20.40
 1987 245    67    32  13.0     2  0.87   798   880     0   489     0  1678     0   0.0 0.000   238 0.000 0.000 0.000 0.705 0.000   1.72   0.00 109.6  0.00  0.00  1.00  3.78  1.38  0.35  0.32  0.21     73    104  19.10
 1987 246    68    33  13.0     2  0.86   802   904     0   492     0  1707     0   0.0 0.000   238 0.000 0.000 0.000 0.721 0.000   1.69   0.00 107.8  0.00  0.00  1.00  3.81  1.40  0.35  0.32  0.21     80    104  18.70
 1987 247    69    34  14.0     2  0.86   807   932     0   495     0  1739     0   0.0 0.000   239 0.000 0.000 0.000 0.733 0.000   1.66   0.00 106.0  0.00  0.00  1.00  3.83  1.41  0.35  0.32  0.21     88    104  20.50
 1987 248    70    35  14.0     2  0.84   810   952     0   496     0  1762     0   0.0 0.000   239 0.000 0.000 0.000 0.746 0.000   1.63   0.00 104.2  0.00  0.00  1.00  3.86  1.43  0.35  0.32  0.21     97    104  18.85
 1987 249    71    36  14.0     2  0.83   812   968     0   496     0  1780     0   0.0 0.000   239 0.000 0.000 0.000 0.755 0.000   1.62   0.00 102.3  0.00  0.00  1.00  3.87  1.45  0.35  0.32  0.21    105    104  16.80
 1987 250    72    37  14.0     2  0.82   815   989     0   497     0  1804     0   0.0 0.000   240 0.000 0.000 0.000 0.761 0.000   1.60   0.00 100.4  0.00  0.00  1.00  3.88  1.46  0.35  0.32  0.21    115    104  18.25
 1987 251    73    38  14.0     2  0.81   819  1015     0   500     0  1834     0   0.0 0.000   241 0.000 0.000 0.000 0.770 0.000   1.57   0.00  98.6  0.00  0.00  1.00  3.90  1.47  0.35  0.32  0.21    124    104  19.00
 1987 252    74    39  14.0     2  0.79   821  1030     0   499     0  1851     0   0.0 0.000   241 0.000 0.000 0.000 0.781 0.000   1.56   0.00  96.7  0.00  0.00  1.00  3.92  1.50  0.35  0.32  0.21    134    104  18.15
 1987 253    75    40  14.0     2  0.78   822  1044     0   498     0  1866     0   0.0 0.000   241 0.000 0.000 0.000 0.786 0.000   1.54   0.00  94.7  0.00  0.00  1.00  3.93  1.51  0.35  0.32  0.21    145    104  16.65
 1987 254    76    41  15.0     2  0.77   825  1065     0   499     0  1890     0   0.0 0.000   242 0.000 0.000 0.000 0.790 0.000   1.52   0.00  92.8  0.00  0.00  1.00  3.93  1.51  0.35  0.32  0.21    156    104  19.20
 1987 255    77    42  15.0     2  0.75   828  1088     0   500     0  1916     0   0.0 0.000   242 0.000 0.000 0.000 0.798 0.000   1.50   0.00  90.9  0.00  0.00  1.00  3.94  1.53  0.35  0.31  0.21    168    104  19.60
 1987 256    78    43  15.0     2  0.74   830  1108     0   501     0  1938     0   0.0 0.000   243 0.000 0.000 0.000 0.806 0.000   1.49   0.00  89.0  0.00  0.00  1.00  3.96  1.55  0.35  0.31  0.21    180    104  19.55
 1987 257    79    44  15.0     2  0.73   832  1130     0   502     0  1962     0   0.0 0.000   243 0.000 0.000 0.000 0.812 0.000   1.47   0.00  87.1  0.00  0.00  1.00  3.97  1.56  0.35  0.31  0.21    192    104  19.45
 1987 258    80    45  15.0     3  0.71   833  1152     0   501     0  1985     0   0.0 0.000   215 0.000 0.000 0.000 0.819 0.000   1.45   0.00  85.1  0.00  0.00  1.00  3.98  1.58  0.34  0.31  0.21    205    104  20.00
 1987 259    81    46  15.0     3  0.69   834  1174     0   500     0  2008     0   0.0 0.000   190 0.000 0.000 0.000 0.820 0.000   1.46   0.00  83.2  0.00  0.00  1.00  3.98  1.59  0.34  0.31  0.21    218    104  19.45
 1987 260    82    47  15.0     3  0.68   834  1188     0   498     0  2022     0   0.0 0.000   169 0.000 0.000 0.000 0.811 0.000   1.45   0.00  81.1  0.00  0.00  1.00  3.97  1.60  0.34  0.31  0.21    232    104  18.90
 1987 261    83    48  16.0     3  0.66   835  1203     0   496     0  2038     0   0.0 0.000   151 0.000 0.000 0.000 0.812 0.000   1.44   0.00  79.0  0.00  0.00  1.00  3.96  1.60  0.34  0.31  0.21    246    104  18.75
 1987 262    84    49  16.0     3  0.64   835  1215     0   493     0  2050     0   0.0 0.000   135 0.000 0.000 0.000 0.812 0.000   1.43   0.00  76.9  0.00  0.00  1.00  3.94  1.60  0.34  0.31  0.21    261    104  18.80
 1987 263    85    50  16.0     3  0.62   835  1230     0   491     0  2065     0   0.0 0.000   121 0.000 0.000 0.000 0.812 0.000   1.42   0.00  74.8  0.00  0.00  1.00  3.93  1.61  0.34  0.31  0.21    276    104  18.20
 1987 264    86    51  16.0     3  0.61   836  1249     0   490     0  2085     0   0.0 0.000   109 0.000 0.000 0.000 0.809 0.000   1.41   0.00  72.8  0.00  0.00  1.00  3.92  1.61  0.34  0.31  0.21    292    104  19.50
 1987 265    87    52  16.0     3  0.59   836  1265     0   488     0  2101     0   0.0 0.000    99 0.000 0.000 0.000 0.804 0.000   1.40   0.00  70.7  0.00  0.00  1.00  3.90  1.61  0.34  0.31  0.21    308    104  19.05
 1987 266    88    53  16.0     3  0.57   837  1278     0   485     0  2115     0   0.0 0.000    90 0.000 0.000 0.000 0.794 0.000   1.42   0.00  68.7  0.00  0.00  1.00  3.89  1.62  0.33  0.31  0.21    324    104  18.25
 1987 267    89    54  16.0     3  0.56   838  1301     0   485     0  2138     0   0.0 0.000    82 0.000 0.000 0.000 0.770 0.000   1.42   0.00  66.7  0.00  0.00  1.00  3.88  1.62  0.33  0.31  0.21    341    104  19.40
 1987 268    90    55  17.0     3  0.54   839  1325     0   485     0  2164     0   0.0 0.000    76 0.000 0.000 0.000 0.760 0.000   1.41   0.00  64.8  0.00  0.00  1.00  3.87  1.62  0.33  0.31  0.21    359    104  19.35
 1987 269    91    56  17.0     3  0.53   840  1339     0   482     0  2179     0   0.0 0.000    70 0.000 0.000 0.000 0.750 0.000   1.41   0.00  62.7  0.00  0.00  1.00  3.87  1.63  0.33  0.31  0.21    377    104  18.40
 1987 270    92    57  17.0     3  0.51   841  1362     0   482     0  2203     0   0.0 0.000    65 0.000 0.000 0.000 0.736 0.000   1.40   0.00  60.8  0.00  0.00  1.00  3.86  1.63  0.33  0.31  0.21    395    104  18.80
 1987 271    93    58  17.0     3  0.50   842  1384     0   481     0  2226     0   0.0 0.000    61 0.000 0.000 0.000 0.729 0.000   1.40   0.00  58.8  0.00  0.00  1.00  3.85  1.64  0.33  0.31  0.22    414    104  19.40
 1987 272    94    59  17.0     3  0.48   844  1408     0   481     0  2252     0   0.0 0.000    57 0.000 0.000 0.000 0.721 0.000   1.39   0.00  56.9  0.00  0.00  1.00  3.84  1.64  0.33  0.31  0.22    433    104  19.60
 1987 273    95    60  17.0     3  0.46   845  1433     0   481     0  2278     0   0.0 0.000    54 0.000 0.000 0.000 0.714 0.000   1.38   0.00  55.0  0.00  0.00  1.00  3.84  1.65  0.33  0.31  0.22    453    104  19.50
 1987 274    96    61  17.0     3  0.45   847  1458     0   481     0  2304     0   0.0 0.000    51 0.000 0.000 0.000 0.709 0.000   1.37   0.00  53.0  0.00  0.00  1.00  3.83  1.65  0.33  0.31  0.22    474    104  19.65
 1987 275    97    62  17.0     3  0.43   847  1477     0   480     0  2324     0   0.0 0.000    49 0.000 0.000 0.000 0.704 0.000   1.36   0.00  51.0  0.00  0.00  1.00  3.83  1.66  0.32  0.31  0.22    494    104  19.45
 1987 276    98    63  18.0     3  0.42   849  1499     0   479     0  2348     0   0.0 0.000    47 0.000 0.000 0.000 0.699 0.000   1.35   0.00  49.1  0.00  0.00  1.00  3.82  1.66  0.32  0.31  0.23    516    104  17.80
 1987 277    99    64  18.0     3  0.40   850  1519     0   478     0  2369     0   0.0 0.000    45 0.000 0.000 0.000 0.693 0.000   1.34   0.00  47.1  0.00  0.00  1.00  3.82  1.67  0.32  0.31  0.23    537    104  19.40
 1987 278   100    65  18.0     3  0.38   851  1542     0   478     0  2394     0   0.0 0.000    43 0.000 0.000 0.000 0.687 0.000   1.33   0.00  45.2  0.00  0.00  1.00  3.81  1.67  0.32  0.31  0.23    560    104  19.25
 1987 279   101    66  18.0     3  0.37   852  1563     0   477     0  2415     0   0.0 0.000    42 0.000 0.000 0.000 0.683 0.000   1.32   0.00  43.2  0.00  0.00  1.00  3.81  1.67  0.32  0.32  0.23    582    104  18.95
 1987 280   102    67  18.0     3  0.35   853  1577     0   475     0  2430     0   0.0 0.000    41 0.000 0.000 0.000 0.676 0.000   1.31   0.00  41.1  0.00  0.00  1.00  3.81  1.68  0.32  0.32  0.23    606    104  19.10
 1987 281   103    68  18.0     3  0.33   854  1598     0   474     0  2452     0   0.0 0.000    40 0.000 0.000 0.000 0.665 0.000   1.30   0.00  39.2  0.00  0.00  1.00  3.80  1.68  0.32  0.32  0.23    629    104  18.00
 1987 282   104    69  18.0     3  0.32   855  1620     0   474     0  2476     0   0.0 0.000    39 0.000 0.000 0.000 0.657 0.000   1.29   0.00  37.3  0.00  0.00  1.00  3.79  1.68  0.32  0.32  0.24    653    104  18.80
 1987 283   105    70  18.0     3  0.30   857  1642     0   473     0  2499     0   0.0 0.000    38 0.000 0.000 0.000 0.648 0.000   1.28   0.00  35.3  0.00  0.00  1.00  3.79  1.69  0.31  0.32  0.24    678    104  19.80
 1987 284   106    71  18.0     3  0.29   857  1661     0   472     0  2518     0   0.0 0.000    38 0.000 0.000 0.000 0.638 0.000   1.28   0.00  33.2  0.00  0.00  1.00  3.78  1.70  0.31  0.32  0.24    703    104  20.00
 1987 285   107    72  19.0     3  0.27   858  1680     0   471     0  2537     0   0.0 0.000    37 0.000 0.000 0.000 0.621 0.000   1.28   0.00  31.2  0.00  0.00  1.00  3.77  1.70  0.31  0.32  0.24    729    104  20.20
 1987 286   108    73  19.0     3  0.24   858  1699     0   470     0  2557     0   0.0 0.000    37 0.000 0.000 0.000 0.599 0.000   1.27   0.00  27.7  0.00  0.00  1.00  3.76  1.70  0.31  0.32  0.24    755    104  20.40
 1987 287   109    74  19.0     3  0.21   858  1712     0   467     0  2570     0   0.0 0.000    36 0.000 0.000 0.000 0.585 0.000   1.27   0.00  24.6  0.00  0.00  1.00  3.76  1.71  0.31  0.32  0.24    782    104  20.15
 1987 288   110    75  19.0     3  0.19   858  1732     0   466     0  2591     0   0.0 0.000    36 0.000 0.000 0.000 0.567 0.000   1.26   0.00  22.1  0.00  0.00  1.00  3.75  1.71  0.31  0.32  0.24    810    104  19.70
 1987 289   111    76  19.0     3  0.17   859  1750     0   465     0  2609     0   0.0 0.000    36 0.000 0.000 0.000 0.552 0.000   1.25   0.00  19.8  0.00  0.00  1.00  3.74  1.71  0.31  0.32  0.25    838    104  20.30
 1987 290   112    77  19.0     3  0.15   860  1767     0   463     0  2626     0   0.0 0.000    35 0.000 0.000 0.000 0.538 0.000   1.24   0.00  17.9  0.00  0.00  1.00  3.73  1.71  0.31  0.32  0.25    866    104  20.20
 1987 291   113    78  19.0     3  0.14   860  1779     0   461     0  2639     0   0.0 0.000    35 0.000 0.000 0.000 0.521 0.000   1.24   0.00  16.1  0.00  0.00  1.00  3.72  1.71  0.31  0.32  0.25    896    104  20.30
 1987 292   114    79  19.0     3  0.13   861  1794     0   459     0  2654     0   0.0 0.000    35 0.000 0.000 0.000 0.502 0.000   1.23   0.00  14.6  0.00  0.00  1.00  3.71  1.71  0.30  0.32  0.25    925    104  19.60
 1987 293   115    80  19.0     4  0.12   861  1809     0   457     0  2669     0   0.0 0.000    35 0.000 0.000 0.000 0.482 0.000   1.22   0.00  14.4  0.00  0.00  1.00  3.71  1.71  0.30  0.32  0.25    954    104  20.50
 1987 294   116    81  19.0     4  0.12   861  1824     0   455     0  2684     0   0.0 0.000    35 0.000 0.000 0.000 0.463 0.000   1.22   0.00  14.1  0.00  0.00  1.00  3.70  1.71  0.30  0.32  0.25    984    104  20.70
 1987 295   117    82  19.0     4  0.12   860  1837     0   453     0  2697     0   0.0 0.000    35 0.000 0.000 0.000 0.443 0.000   1.24   0.00  13.9  0.00  0.00  1.00  3.69  1.71  0.30  0.32  0.25   1014    104  19.55
 1987 296   118    83  19.0     4  0.12   860  1851     0   451     0  2712     0   0.0 0.000    35 0.000 0.000 0.000 0.384 0.000   1.24   0.00  13.7  0.00  0.00  1.00  3.68  1.70  0.30  0.32  0.25   1043    104  19.50
 1987 297   119    84  19.0     4  0.12   860  1867     0   450     0  2728     0   0.0 0.000    34 0.000 0.000 0.000 0.349 0.000   1.24   0.00  13.6  0.00  0.00  1.00  3.67  1.70  0.30  0.32  0.25   1073    104  17.65
 1987 298   120    85  19.0     4  0.12   860  1885     0   448     0  2745     0   0.0 0.000    34 0.000 0.000 0.000 0.316 0.000   1.24   0.00  13.4  0.00  0.00  1.00  3.66  1.70  0.30  0.32  0.26   1102    104  15.40
 1987 299   121    86  19.0     5  0.11   860   958   520   447   954  2772  1928  49.5 0.188    34 0.000 0.000 0.000 0.000 0.000   1.60  54.54  13.3  0.00  0.00  1.00  3.65  1.70  0.30  0.32  0.26   1132    104  14.90
 1987 300   122    87  19.0     5  0.11   860   978   526   445   960  2798  1948  49.3 0.188    34 0.000 0.000 0.000 0.000 0.000   1.57  54.81  13.3  0.00  0.00  1.00  3.65  1.70  0.29  0.32  0.26   1162    137  15.75
 1987 301   123    88  19.0     5  0.11   860   998   532   443   966  2824  1971  49.0 0.188    34 0.000 0.000 0.000 0.000 0.000   1.55  55.09  13.2  0.00  0.00  1.00  3.64  1.70  0.29  0.32  0.26   1192    170  17.25
 1987 302   124    89  19.0     5  0.11   860  1016   538   442   972  2848  1993  48.8 0.189    34 0.000 0.000 0.000 0.000 0.000   1.53  55.37  13.1  0.00  0.00  1.00  3.63  1.70  0.29  0.32  0.26   1221    204  18.20
 1987 303   125    90  19.0     5  0.11   851   962   624   440  1058  2871  2312  45.8 0.217    34 0.000 0.000 0.000 0.000 0.000   1.54  59.01  13.2  0.00  0.00  1.00  3.62  1.69  0.29  0.32  0.26   1251    237  19.55
 1987 304   126    91  19.0     5  0.11   841   906   709   438  1142  2890  2624  43.5 0.245    34 0.000 0.000 0.000 0.000 0.000   1.56  62.03  13.2  0.00  0.00  1.00  3.62  1.69  0.29  0.32  0.26   1281    270  19.70
 1987 305   127    92  19.0     5  0.11   832   856   786   435  1220  2908  2913  41.9 0.270    34 0.000 0.000 0.000 0.000 0.000   1.57  64.45  13.3  0.00  0.00  1.00  3.61  1.69  0.29  0.32  0.27   1311    302  18.80
 1987 306   128    93  19.0     5  0.11   824   809   859   433  1293  2926  3181  40.6 0.294    34 0.000 0.000 0.000 0.000 0.000   1.58  66.44  13.3  0.00  0.00  1.00  3.60  1.68  0.29  0.32  0.27   1340    335  18.00
 1987 307   129    94  19.0     5  0.11   816   764   931   431  1364  2944  3446  39.6 0.316    34 0.000 0.000 0.000 0.000 0.000   1.58  68.20  13.3  0.00  0.00  1.00  3.59  1.68  0.29  0.32  0.27   1370    367  18.30
 1987 308   130    95  19.0     5  0.11   809   724   997   428  1431  2963  3693  38.7 0.336    34 0.000 0.000 0.000 0.000 0.000   1.59  69.68  13.3  0.00  0.00  1.00  3.59  1.67  0.28  0.32  0.27   1400    399  17.50
 1987 309   131    96  19.0     5  0.11   802   685  1062   426  1495  2982  3932  38.0 0.356    34 0.000 0.000 0.000 0.000 0.000   1.59  70.99  13.3  0.00  0.00  1.00  3.58  1.67  0.28  0.32  0.27   1430    431  17.45
 1987 310   132    97  19.0     5  0.11   794   643  1126   424  1560  2997  4170  37.4 0.376    34 0.000 0.000 0.000 0.000 0.000   1.59  72.19  13.3  0.00  0.00  1.00  3.57  1.66  0.28  0.32  0.27   1460    463  17.85
 1987 311   133    98  19.0     5  0.10   787   601  1191   421  1625  3013  4412  36.8 0.395    34 0.000 0.000 0.000 0.000 0.000   1.59  73.31  13.3  0.00  0.00  1.00  3.56  1.66  0.28  0.32  0.27   1490    495  18.65
 1987 312   134    99  19.0     5  0.10   780   564  1247   418  1681  3026  4620  36.4 0.412    34 0.000 0.000 0.000 0.000 0.000   1.59  74.20  13.3  0.00  0.00  1.00  3.55  1.65  0.28  0.32  0.27   1520    527  16.50
 1987 313   135   100  19.0     5  0.10   775   532  1301   416  1735  3042  4818  36.0 0.428    34 0.000 0.000 0.000 0.000 0.000   1.59  74.99  13.3  0.00  0.00  1.00  3.54  1.65  0.28  0.32  0.27   1550    558  16.15
 1987 314   136   101  19.0     5  0.10   799   499  1339   413  1773  3071  4961  35.7 0.436    34 0.000 0.000 0.000 0.000 0.000   1.55  75.54  12.7  0.00  0.00  1.00  3.54  1.64  0.28  0.32  0.27   1580    589  15.40
 1987 315   137   102  19.0     5  0.10   799   499  1355   411  1788  3086  5017  35.6 0.439    34 0.000 0.000 0.000 0.000 0.000   1.54  75.74  12.6  0.00  0.00  1.00  3.53  1.64  0.28  0.32  0.27   1610    620  18.25
 1987 316   138   103  19.0     5  0.10   799   499  1368   408  1802  3099  5066  35.6 0.441    34 0.000 0.000 0.000 0.000 0.000   1.52  75.92  12.4  0.00  0.00  1.00  3.52  1.63  0.27  0.32  0.27   1640    650  19.20
 1987 317   139   104  19.0     5  0.10   799   499  1381   405  1815  3113  5115  35.5 0.444    34 0.000 0.000 0.000 0.000 0.000   1.51  76.10  12.3  0.00  0.00  1.00  3.51  1.62  0.27  0.31  0.27   1670    681  18.95
 1987 318   140   105  19.0     5  0.10   799   499  1393   403  1827  3124  5159  35.4 0.446    34 0.000 0.000 0.000 0.000 0.000   1.49  76.25  12.1  0.00  0.00  1.00  3.50  1.62  0.27  0.31  0.27   1700    711  18.15
 1987 319   141   106  19.0     5  0.10   799   499  1405   400  1839  3137  5205  35.3 0.448    34 0.000 0.000 0.000 0.000 0.000   1.48  76.41  11.9  0.00  0.00  1.00  3.49  1.61  0.27  0.31  0.27   1730    741  19.35
 1987 320   142   107  19.0     6  0.10   799   499  1405   400  1839  3137  5205  35.3 0.448    34 0.000 0.000 0.000 0.000 0.000   1.48  76.41  11.9  0.00  0.00  1.00  3.48  1.61  0.27  0.31  0.27   1730    741  19.60
 1987 321   143   108  19.0    20  0.10   799   499  1405   400  1839  3137  5205  35.3 0.448    34 0.000 0.000 0.000 0.000 0.000   1.48  76.41  11.9  0.00  0.00  1.00  3.47  1.60  0.27  0.31  0.27   1730    741   0.00

*DSSAT Cropping System Model Ver. 4.6.1.000 -release      DEC 02, 2018; 12:33:07
                                                                                
*RUN   3        : 88_01                     RICER046 SSKT0001    3              
 MODEL          : RICER046 - Rice                                               
 EXPERIMENT     : SSKT0001 RI mulation, Thailand                                
 DATA PATH      : C:\DSSAT46\Rice\                                              
 TREATMENT  3   : 88_01                     RICER046                            
  
!YR        Days  Days              Leaf  <--------- Dry Weight -----------> Grain Kernl              <------ Stress (0-1) ------>   Leaf  Shell  Spec  <-Canopy->  Root  <-- Root Length Density ---><Senesced Mat>   Phot  
!  and    after after  Leaf  Grow  Area  <------------ kg/Ha ------------->   per  wght  Harv Tillr  <--- Water ---->                Nit   -ing  Leaf  Hght Brdth Depth  <---- cm3/cm3 of soil -----> <--(kg/ha)-->  Therm  
!     DOY start plant   Num Stage Index  Leaf  Stem Grain  Root Panic  Crop    m2    mg  Indx   No.  Phot  Grow  Excs  Nitr Potas     %      %   Area    m     m     m    0-5  5-15 15-30 30-4242-100   Surf   Soil   Days  
@YEAR DOY   DAS   DAP  L#SD  GSTD  LAID  LWAD  SWAD  GWAD  RWAD  EWAD  CWAD  G#AD  GWGD  HIAD  T#AD  WSPD  WSGD  EWSD  NSTD  KSTD   LN%D   SH%D  SLAD  CHTD  CWID  RDPD  RL1D  RL2D  RL3D  RL4D  RL5D  SNW0C  SNW1C   DTTD  
 1988 213    35     0   7.0     1  0.24   256    28     0   126     0   284     0   0.0 0.000    33 0.000 0.000 0.000 0.000 0.000   3.40   0.00  93.1  0.00  0.00  0.05  0.84  0.11  0.00  0.00  0.00      0      0  20.31
 1988 214    36     1   8.0     1  0.24   256    28     0   131     0   284     0   0.0 0.000    33 0.000 0.000 0.000 0.228 0.000   3.91   0.00  91.9  0.00  0.00  0.09  0.88  0.11  0.00  0.00  0.00      0      0  18.96
 1988 215    37     2   8.0     1  0.24   257    28     0   138     0   285     0   0.0 0.000    33 0.000 0.000 0.000 0.000 0.000   3.98   0.00  91.6  0.00  0.00  0.12  0.97  0.13  0.00  0.00  0.00      0      0  17.25
 1988 216    38     3   8.0     1  0.24   257    28     0   150     0   286     0   0.0 0.000    33 0.000 0.000 0.000 0.000 0.000   3.97   0.00  91.9  0.00  0.00  0.15  1.09  0.16  0.00  0.00  0.00      0     11  18.67
 1988 217    39     4   8.0     1  0.24   258    28     0   166     0   286     0   0.0 0.000    33 0.000 0.000 0.000 0.000 0.000   3.96   0.00  92.0  0.00  0.00  0.19  1.28  0.20  0.00  0.00  0.00      0     23  20.76
 1988 218    40     5   9.0     1  0.24   259    28     0   183     0   287     0   0.0 0.000    33 0.000 0.000 0.000 0.000 0.000   3.94   0.00  92.3  0.00  0.00  0.22  1.50  0.25  0.02  0.00  0.00      1     36  20.86
 1988 219    41     6   9.0     1  0.24   260    28     0   200     0   288     0   0.0 0.000    33 0.000 0.000 0.000 0.000 0.000   3.92   0.00  92.7  0.00  0.00  0.26  1.72  0.29  0.03  0.00  0.00      1     50  20.02
 1988 220    42     7   9.0     2  0.25   266    34     0   215     0   299     0   0.0 0.000    86 0.000 0.000 0.000 0.000 0.000   3.77   0.00  95.0  0.00  0.00  0.30  1.95  0.34  0.06  0.00  0.00      1     66  20.85
 1988 221    43     8   9.0     2  0.26   272    39     0   228     0   311     0   0.0 0.000    91 0.000 0.000 0.000 0.000 0.000   3.63   0.00  96.6  0.00  0.00  0.33  2.13  0.38  0.08  0.00  0.00      1     82  20.90
 1988 222    44     9  10.0     2  0.28   279    45     0   239     0   325     0   0.0 0.000    95 0.000 0.000 0.000 0.000 0.000   3.50   0.00  98.5  0.00  0.00  0.37  2.29  0.41  0.10  0.01  0.00      1    100  20.26
 1988 223    45    10  10.0     2  0.29   290    54     0   252     0   344     0   0.0 0.000   102 0.000 0.000 0.000 0.000 0.000   3.49   0.00 101.0  0.00  0.00  0.41  2.42  0.44  0.11  0.03  0.00      1    118  19.51
 1988 224    46    11  10.0     2  0.33   313    73     0   260     0   387     0   0.0 0.000   113 0.000 0.000 0.000 0.000 0.000   3.40   0.00 105.9  0.00  0.00  0.44  2.57  0.47  0.13  0.05  0.00      1    137  19.61
 1988 225    47    12  10.0     2  0.37   338    94     0   269     0   432     0   0.0 0.000   124 0.000 0.000 0.000 0.000 0.000   3.39   0.00 110.4  0.00  0.00  0.48  2.66  0.49  0.14  0.06  0.00      1    157  19.62
 1988 226    48    13  10.0     2  0.44   376   125     0   283     0   501     0   0.0 0.000   142 0.000 0.000 0.000 0.000 0.000   3.39   0.00 116.0  0.00  0.00  0.51  2.76  0.51  0.15  0.07  0.01      1    178  20.65
 1988 227    49    14  11.0     2  0.50   412   155     0   297     0   567     0   0.0 0.000   157 0.000 0.000 0.000 0.000 0.000   3.37   0.00 120.5  0.00  0.00  0.55  2.91  0.54  0.16  0.09  0.03      2    200  19.47
 1988 228    50    15  11.0     2  0.57   459   195     0   316     0   654     0   0.0 0.000   177 0.000 0.000 0.000 0.000 0.000   3.38   0.00 125.2  0.00  0.00  0.55  3.05  0.57  0.18  0.11  0.04      2    223  20.25
 1988 229    51    16  11.0     2  0.66   508   238     0   336     0   746     0   0.0 0.000   198 0.000 0.000 0.000 0.000 0.000   3.37   0.00 129.2  0.00  0.00  0.55  3.23  0.61  0.20  0.14  0.06      2    247  20.25
 1988 230    52    17  11.0     2  0.75   566   285     0   358     0   851     0   0.0 0.000   220 0.000 0.000 0.000 0.000 0.000   3.17   0.00 133.0  0.00  0.00  0.55  3.43  0.65  0.22  0.17  0.08      2    273  19.90
 1988 231    53    18  11.0     2  0.85   630   341     0   385     0   971     0   0.0 0.000   239 0.000 0.000 0.000 0.000 0.000   2.87   0.00 134.2  0.00  0.00  0.55  3.64  0.69  0.24  0.20  0.10      2    273  20.40
 1988 232    54    19  12.0     2  0.90   670   392     0   404     0  1062     0   0.0 0.000   249 0.000 0.000 0.000 0.208 0.000   2.65   0.00 134.1  0.00  0.00  0.55  3.88  0.75  0.27  0.24  0.13      3    273  19.45
 1988 233    55    20  12.0     2  0.93   696   434     0   417     0  1130     0   0.0 0.000   254 0.000 0.000 0.000 0.306 0.000   2.51   0.00 133.4  0.00  0.00  0.55  4.04  0.80  0.29  0.27  0.16      4    273  19.90
 1988 234    56    21  12.0     2  0.97   728   494     0   436     0  1222     0   0.0 0.000   257 0.000 0.000 0.000 0.368 0.000   2.35   0.00 132.8  0.00  0.00  0.55  4.07  0.84  0.31  0.30  0.18      6    273   8.89
 1988 235    57    22  12.0     2  1.00   755   556     0   454     0  1311     0   0.0 0.000   258 0.000 0.165 0.000 0.441 0.000   2.21   0.00 131.9  0.00  0.00  0.55  4.09  0.91  0.34  0.35  0.22      8    273   3.45
 1988 236    58    23  12.0     2  1.01   774   608     0   467     0  1382     0   0.0 0.000   259 0.000 0.000 0.000 0.509 0.000   2.11   0.00 130.7  0.00  0.00  0.55  4.09  0.98  0.37  0.39  0.25     10    273   6.01
 1988 237    59    24  12.0     2  1.02   790   659     0   479     0  1449     0   0.0 0.000   260 0.000 0.000 0.000 0.555 0.000   2.20   0.00 129.4  0.00  0.00  0.55  4.23  1.01  0.38  0.41  0.27     13    273  16.46
 1988 238    60    25  12.0     2  1.03   807   704     0   490     0  1511     0   0.0 0.000   263 0.000 0.000 0.000 0.509 0.000   2.22   0.00 128.1  0.00  0.00  0.55  4.33  1.05  0.39  0.44  0.29     17    273  18.20
 1988 239    61    26  12.0     2  1.06   830   763     0   506     0  1593     0   0.0 0.000   266 0.000 0.000 0.000 0.495 0.000   2.15   0.00 127.1  0.00  0.00  0.55  4.37  1.09  0.41  0.46  0.31     20    273  18.65
 1988 240    62    27  13.0     2  1.07   849   817     0   519     0  1667     0   0.0 0.000   268 0.000 0.000 0.000 0.528 0.000   2.06   0.00 125.9  0.00  0.00  0.55  4.40  1.14  0.43  0.50  0.34     24    273  19.15
 1988 241    63    28  13.0     2  1.07   861   854     0   526     0  1715     0   0.0 0.000   270 0.000 0.000 0.000 0.570 0.000   2.01   0.00 124.3  0.00  0.00  0.55  4.45  1.19  0.45  0.53  0.36     29    273  19.25
 1988 242    64    29  13.0     2  1.08   876   907     0   538     0  1784     0   0.0 0.000   271 0.000 0.000 0.000 0.590 0.000   1.94   0.00 123.0  0.00  0.00  0.55  4.48  1.22  0.46  0.55  0.38     34    273  19.70
 1988 243    65    30  13.0     2  1.08   888   951     0   547     0  1839     0   0.0 0.000   273 0.000 0.000 0.000 0.620 0.000   1.88   0.00 121.4  0.00  0.00  0.55  4.54  1.27  0.47  0.57  0.40     40    273  19.70
 1988 244    66    31  13.0     2  1.07   896   984     0   551     0  1879     0   0.0 0.000   274 0.000 0.000 0.000 0.645 0.000   1.85   0.00 119.7  0.00  0.00  0.55  4.58  1.30  0.49  0.59  0.41     46    273  17.64
 1988 245    67    32  13.0     2  1.07   906  1031     0   560     0  1938     0   0.0 0.000   274 0.061 0.374 0.000 0.657 0.000   1.82   0.00 118.2  0.00  0.00  0.55  4.62  1.32  0.49  0.60  0.43     53    273   2.01
 1988 246    68    33  13.0     2  1.07   916  1079     0   570     0  1996     0   0.0 0.000   274 0.000 0.000 0.000 0.671 0.000   1.77   0.00 116.6  0.00  0.00  0.55  4.60  1.37  0.51  0.63  0.45     60    273   9.97
 1988 247    69    34  13.0     2  1.06   925  1122     0   577     0  2047     0   0.0 0.000   274 0.356 0.571 0.000 0.696 0.000   1.73   0.00 114.9  0.00  0.00  0.55  4.57  1.42  0.53  0.66  0.47     67    273   1.19
 1988 248    70    35  13.0     2  1.05   930  1164     0   583     0  2094     0   0.0 0.000   274 0.657 0.771 0.000 0.717 0.000   1.69   0.00 113.1  0.00  0.00  0.55  4.55  1.46  0.54  0.68  0.49     76    273   0.67
 1988 249    71    36  13.0     2  1.04   932  1197     0   586     0  2129     0   0.0 0.000   274 0.785 0.856 0.000 0.735 0.000   1.66   0.00 111.1  0.00  0.00  0.55  4.53  1.50  0.56  0.70  0.51     84    273   0.52
 1988 250    72    37  13.0     2  1.02   934  1223     0   587     0  2157     0   0.0 0.000   274 0.823 0.882 0.000 0.748 0.000   1.64   0.00 109.0  0.00  0.00  0.55  4.50  1.52  0.57  0.72  0.52     93    273   0.48
 1988 251    73    38  13.0     2  1.00   934  1245     0   587     0  2179     0   0.0 0.000   274 0.862 0.908 0.000 0.758 0.000   1.63   0.00 106.9  0.00  0.00  0.55  4.48  1.54  0.57  0.73  0.53    103    273   0.43
 1988 252    74    39  13.0     2  0.98   935  1266     0   587     0  2201     0   0.0 0.000   274 0.858 0.906 0.000 0.766 0.000   1.65   0.00 104.8  0.00  0.00  0.55  4.49  1.55  0.58  0.73  0.54    113    273   0.45
 1988 253    75    40  13.0     2  0.97   939  1295     0   589     0  2234     0   0.0 0.000   275 0.000 0.000 0.000 0.754 0.000   1.63   0.00 103.0  0.00  0.00  0.55  4.49  1.56  0.58  0.74  0.54    124    273  19.30
 1988 254    76    41  14.0     2  0.95   943  1319     0   590     0  2262     0   0.0 0.000   275 0.000 0.000 0.000 0.763 0.000   1.63   0.00 101.1  0.00  0.00  0.55  4.50  1.58  0.59  0.75  0.55    135    273  19.30
 1988 255    77    42  14.0     2  0.94   947  1345     0   592     0  2291     0   0.0 0.000   276 0.000 0.000 0.000 0.757 0.000   1.61   0.00  99.2  0.00  0.00  0.55  4.50  1.59  0.59  0.75  0.56    147    273  20.05
 1988 256    78    43  14.0     2  0.92   950  1372     0   594     0  2322     0   0.0 0.000   276 0.000 0.000 0.000 0.764 0.000   1.59   0.00  97.3  0.00  0.00  0.55  4.48  1.62  0.60  0.76  0.57    160    273  11.94
 1988 257    79    44  14.0     2  0.90   951  1388     0   592     0  2338     0   0.0 0.000   276 0.858 0.905 0.000 0.773 0.000   1.59   0.00  95.2  0.00  0.00  0.55  4.49  1.64  0.60  0.77  0.58    172    273   0.44
 1988 258    80    45  14.0     2  0.89   954  1414     0   594     0  2368     0   0.0 0.000   276 0.000 0.090 0.000 0.776 0.000   1.61   0.00  93.3  0.00  0.00  0.55  4.49  1.64  0.60  0.77  0.58    186    273   4.08
 1988 259    81    46  14.0     2  0.87   957  1436     0   594     0  2393     0   0.0 0.000   277 0.000 0.000 0.000 0.764 0.000   1.61   0.00  91.3  0.00  0.00  0.55  4.48  1.66  0.61  0.78  0.59    200    273  17.75
 1988 260    82    47  14.0     2  0.86   961  1464     0   596     0  2424     0   0.0 0.000   278 0.000 0.000 0.000 0.760 0.000   1.59   0.00  89.5  0.00  0.00  0.55  4.48  1.67  0.61  0.79  0.60    214    273  19.60
 1988 261    83    48  14.0     2  0.84   964  1490     0   598     0  2454     0   0.0 0.000   278 0.000 0.000 0.000 0.768 0.000   1.57   0.00  87.6  0.00  0.00  0.55  4.48  1.68  0.62  0.80  0.61    229    273  19.35
 1988 262    84    49  14.0     2  0.83   967  1515     0   599     0  2482     0   0.0 0.000   279 0.000 0.000 0.000 0.774 0.000   1.55   0.00  85.7  0.00  0.00  0.55  4.49  1.70  0.62  0.81  0.62    245    273  19.10
 1988 263    85    50  15.0     2  0.81   970  1537     0   599     0  2507     0   0.0 0.000   279 0.000 0.000 0.000 0.779 0.000   1.55   0.00  83.8  0.00  0.00  0.55  4.50  1.71  0.63  0.82  0.63    261    273  18.30
 1988 264    86    51  15.0     3  0.80   972  1564     0   599     0  2536     0   0.0 0.000   247 0.000 0.000 0.000 0.779 0.000   1.55   0.00  81.8  0.00  0.00  0.55  4.51  1.71  0.63  0.82  0.63    278    273  19.45
 1988 265    87    52  15.0     3  0.78   974  1590     0   598     0  2564     0   0.0 0.000   219 0.000 0.000 0.000 0.767 0.000   1.54   0.00  79.9  0.00  0.00  0.55  4.50  1.72  0.64  0.82  0.64    295    273  19.05
 1988 266    88    53  15.0     3  0.76   976  1618     0   597     0  2595     0   0.0 0.000   195 0.000 0.000 0.000 0.766 0.000   1.52   0.00  77.9  0.00  0.00  0.55  4.50  1.73  0.64  0.83  0.64    313    273  18.35
 1988 267    89    54  15.0     3  0.74   979  1646     0   597     0  2624     0   0.0 0.000   174 0.000 0.000 0.000 0.770 0.000   1.51   0.00  76.0  0.00  0.00  0.55  4.50  1.73  0.64  0.83  0.65    331    273  18.70
 1988 268    90    55  15.0     3  0.73   980  1671     0   596     0  2652     0   0.0 0.000   156 0.000 0.000 0.000 0.773 0.000   1.50   0.00  74.0  0.00  0.00  0.55  4.51  1.74  0.65  0.83  0.66    350    273  18.45
 1988 269    91    56  15.0     3  0.71   982  1694     0   594     0  2676     0   0.0 0.000   140 0.000 0.000 0.000 0.770 0.000   1.49   0.00  72.0  0.00  0.00  0.55  4.51  1.74  0.65  0.83  0.66    369    273  19.15
 1988 270    92    57  16.0     3  0.69   983  1717     0   592     0  2700     0   0.0 0.000   125 0.000 0.000 0.000 0.769 0.000   1.49   0.00  70.0  0.00  0.00  0.55  4.52  1.75  0.65  0.83  0.66    389    273  19.60
 1988 271    93    58  16.0     3  0.67   985  1742     0   591     0  2727     0   0.0 0.000   113 0.000 0.000 0.000 0.758 0.000   1.47   0.00  68.0  0.00  0.00  0.55  4.52  1.75  0.66  0.83  0.66    410    273  19.57
 1988 272    94    59  16.0     3  0.65   987  1768     0   590     0  2754     0   0.0 0.000   103 0.000 0.000 0.000 0.753 0.000   1.50   0.00  66.1  0.00  0.00  0.55  4.54  1.75  0.66  0.83  0.66    431    273  19.05
 1988 273    95    60  16.0     3  0.63   988  1788     0   588     0  2776     0   0.0 0.000    93 0.000 0.000 0.000 0.722 0.000   1.49   0.00  64.0  0.00  0.00  0.55  4.54  1.76  0.67  0.83  0.67    453    273  17.80
 1988 274    96    61  16.0     3  0.62   990  1816     0   588     0  2806     0   0.0 0.000    85 0.000 0.000 0.000 0.714 0.000   1.48   0.00  62.1  0.00  0.00  0.55  4.54  1.77  0.67  0.82  0.67    475    273  17.95
 1988 275    97    62  16.0     3  0.60   992  1836     0   586     0  2828     0   0.0 0.000    79 0.000 0.000 0.000 0.703 0.000   1.49   0.00  60.1  0.00  0.00  0.55  4.55  1.78  0.68  0.82  0.67    498    273  16.70
 1988 276    98    63  16.0     3  0.58   995  1865     0   586     0  2859     0   0.0 0.000    73 0.000 0.000 0.000 0.682 0.000   1.48   0.00  58.3  0.00  0.00  0.55  4.55  1.79  0.68  0.81  0.67    521    273  16.55
 1988 277    99    64  16.0     3  0.56   998  1896     0   586     0  2894     0   0.0 0.000    68 0.000 0.000 0.000 0.677 0.000   1.46   0.00  56.5  0.00  0.00  0.55  4.56  1.80  0.69  0.81  0.67    545    273  18.55
 1988 278   100    65  17.0     3  0.54   999  1914     0   584     0  2912     0   0.0 0.000    63 0.000 0.000 0.000 0.678 0.000   1.48   0.00  54.4  0.00  0.00  0.55  4.58  1.81  0.69  0.81  0.67    570    273  17.70
 1988 279   101    66  17.0     3  0.52  1000  1932     0   581     0  2931     0   0.0 0.000    59 0.000 0.000 0.000 0.654 0.000   1.47   0.00  52.3  0.00  0.00  0.55  4.57  1.82  0.70  0.80  0.67    595    273  17.50
 1988 280   102    67  17.0     3  0.50  1001  1950     0   579     0  2951     0   0.0 0.000    56 0.000 0.000 0.000 0.648 0.000   1.46   0.00  50.3  0.00  0.00  0.55  4.57  1.83  0.70  0.80  0.66    621    273  18.10
 1988 281   103    68  17.0     3  0.48  1003  1976     0   578     0  2979     0   0.0 0.000    53 0.000 0.000 0.000 0.642 0.000   1.45   0.00  48.4  0.00  0.00  0.55  4.56  1.84  0.70  0.79  0.66    647    273  19.15
 1988 282   104    69  17.0     3  0.47  1005  2002     0   578     0  3007     0   0.0 0.000    51 0.000 0.000 0.000 0.638 0.000   1.44   0.00  46.4  0.00  0.00  0.55  4.56  1.84  0.71  0.80  0.66    674    273  18.95
 1988 283   105    70  17.0     3  0.45  1006  2019     0   575     0  3025     0   0.0 0.000    49 0.000 0.000 0.000 0.628 0.000   1.44   0.00  44.4  0.00  0.00  0.55  4.56  1.85  0.71  0.80  0.65    701    273  16.35
 1988 284   106    71  17.0     3  0.43  1007  2037     0   573     0  3045     0   0.0 0.000    47 0.000 0.000 0.000 0.614 0.000   1.44   0.00  42.3  0.00  0.00  0.55  4.56  1.86  0.72  0.81  0.65    729    273  16.90
 1988 285   107    72  17.0     3  0.41  1008  2054     0   570     0  3062     0   0.0 0.000    45 0.000 0.000 0.000 0.603 0.000   1.44   0.00  40.3  0.00  0.00  0.55  4.56  1.86  0.72  0.81  0.65    758    273  13.30
 1988 286   108    73  17.0     3  0.39  1009  2070     0   568     0  3079     0   0.0 0.000    44 0.000 0.000 0.000 0.590 0.000   1.43   0.00  38.2  0.00  0.00  0.55  4.55  1.86  0.72  0.80  0.64    787    273  15.70
 1988 287   109    74  18.0     3  0.37  1011  2091     0   566     0  3102     0   0.0 0.000    42 0.000 0.000 0.000 0.579 0.000   1.42   0.00  36.3  0.00  0.00  0.55  4.55  1.86  0.72  0.80  0.64    816    273  18.00
 1988 288   110    75  18.0     3  0.35  1013  2112     0   565     0  3125     0   0.0 0.000    41 0.000 0.000 0.000 0.570 0.000   1.41   0.00  34.3  0.00  0.00  0.55  4.55  1.87  0.72  0.80  0.65    847    273  18.75
 1988 289   111    76  18.0     3  0.33  1015  2133     0   563     0  3148     0   0.0 0.000    40 0.000 0.000 0.000 0.560 0.000   1.42   0.00  32.4  0.00  0.00  0.55  4.55  1.87  0.72  0.80  0.65    878    273  18.15
 1988 290   112    77  18.0     3  0.30  1016  2149     0   561     0  3165     0   0.0 0.000    40 0.000 0.000 0.000 0.536 0.000   1.42   0.00  29.2  0.00  0.00  0.55  4.54  1.87  0.72  0.80  0.66    909    273  16.45
 1988 291   113    78  18.0     3  0.27  1018  2172     0   560     0  3190     0   0.0 0.000    39 0.000 0.000 0.000 0.519 0.000   1.41   0.00  26.5  0.00  0.00  0.55  4.53  1.87  0.72  0.80  0.66    942    273  18.15
 1988 292   114    79  18.0     3  0.25  1020  2199     0   559     0  3218     0   0.0 0.000    38 0.000 0.000 0.000 0.500 0.000   1.41   0.00  24.1  0.00  0.00  0.55  4.53  1.88  0.72  0.81  0.66    975    273  18.45
 1988 293   115    80  18.0     3  0.22  1021  2223     0   558     0  3244     0   0.0 0.000    38 0.000 0.000 0.000 0.480 0.000   1.41   0.00  22.0  0.00  0.00  0.55  4.53  1.88  0.73  0.81  0.67   1009    273  18.35
 1988 294   116    81  18.0     3  0.21  1022  2248     0   557     0  3270     0   0.0 0.000    37 0.000 0.000 0.000 0.459 0.000   1.40   0.00  20.2  0.00  0.00  0.55  4.53  1.89  0.73  0.81  0.67   1044    273  18.60
 1988 295   117    82  18.0     3  0.19  1024  2270     0   556     0  3294     0   0.0 0.000    37 0.000 0.000 0.000 0.440 0.000   1.41   0.00  18.6  0.00  0.00  0.55  4.54  1.89  0.73  0.81  0.68   1079    273  17.55
 1988 296   118    83  19.0     3  0.18  1025  2289     0   554     0  3314     0   0.0 0.000    36 0.000 0.000 0.000 0.404 0.000   1.41   0.00  17.2  0.00  0.00  0.55  4.54  1.89  0.73  0.81  0.68   1114    273  17.00
 1988 297   119    84  19.0     3  0.16  1026  2304     0   551     0  3330     0   0.0 0.000    36 0.000 0.000 0.000 0.380 0.000   1.42   0.00  16.0  0.00  0.00  0.55  4.53  1.90  0.73  0.81  0.68   1150    273  18.60
 1988 298   120    85  19.0     3  0.15  1027  2318     0   549     0  3346     0   0.0 0.000    36 0.000 0.000 0.000 0.343 0.000   1.42   0.00  15.0  0.00  0.00  0.55  4.52  1.90  0.73  0.81  0.68   1186    273  19.45
 1988 299   121    86  19.0     3  0.15  1029  2337     0   547     0  3366     0   0.0 0.000    36 0.000 0.000 0.000 0.315 0.000   1.41   0.00  14.3  0.00  0.00  0.55  4.52  1.90  0.72  0.81  0.68   1222    273  17.95
 1988 300   122    87  19.0     3  0.14  1031  2356     0   545     0  3387     0   0.0 0.000    36 0.000 0.000 0.000 0.296 0.000   1.41   0.00  13.6  0.00  0.00  0.55  4.52  1.90  0.72  0.81  0.68   1259    273  17.65
 1988 301   123    88  19.0     4  0.14  1031  2378     0   544     0  3408     0   0.0 0.000    35 0.000 0.000 0.000 0.269 0.000   1.41   0.00  13.5  0.00  0.00  0.55  4.52  1.90  0.72  0.81  0.68   1295    273  16.70
 1988 302   124    89  19.0     4  0.14  1031  2400     0   542     0  3431     0   0.0 0.000    35 0.000 0.000 0.000 0.237 0.000   1.41   0.00  13.4  0.00  0.00  0.55  4.52  1.91  0.72  0.81  0.68   1332    273  15.00
 1988 303   125    90  19.0     4  0.14  1031  2418     0   540     0  3449     0   0.0 0.000    35 0.000 0.000 0.000 0.215 0.000   1.40   0.00  13.3  0.00  0.00  0.55  4.51  1.91  0.72  0.81  0.68   1368    273  14.35
 1988 304   126    91  19.0     4  0.14  1031  2438     0   538     0  3469     0   0.0 0.000    35 0.000 0.000 0.000 0.000 0.000   1.40   0.00  13.2  0.00  0.00  0.55  4.51  1.91  0.72  0.81  0.69   1405    273  13.90
 1988 305   127    92  19.0     4  0.13  1031  2464     0   537     0  3494     0   0.0 0.000    35 0.000 0.000 0.000 0.000 0.000   1.39   0.00  13.1  0.00  0.00  0.55  4.51  1.92  0.72  0.81  0.69   1442    273  14.15
 1988 306   128    93  19.0     4  0.13  1031  2490     0   536     0  3520     0   0.0 0.000    35 0.000 0.000 0.000 0.000 0.000   1.39   0.00  13.0  0.00  0.00  0.55  4.51  1.92  0.72  0.82  0.69   1479    273  16.60
 1988 307   129    94  19.0     4  0.13  1031  2515     0   535     0  3545     0   0.0 0.000    35 0.000 0.000 0.000 0.000 0.000   1.39   0.00  12.9  0.00  0.00  0.55  4.52  1.93  0.72  0.82  0.69   1515    273  17.10
 1988 308   130    95  19.0     5  0.13  1031  1260   771   533  1284  3574  2855  45.0 0.216    35 0.000 0.000 0.000 0.000 0.000   1.65  60.05  12.9  0.00  0.00  0.55  4.52  1.93  0.72  0.82  0.69   1552    273  17.45
 1988 309   131    96  19.0     5  0.13  1023  1216   852   531  1365  3605  3156  43.2 0.236    35 0.000 0.000 0.000 0.000 0.000   1.65  62.43  12.9  0.00  0.00  0.55  4.51  1.94  0.71  0.82  0.70   1589    273  14.30
 1988 310   132    97  19.0     5  0.13  1015  1172   933   529  1446  3633  3454  41.8 0.257    35 0.000 0.000 0.000 0.000 0.000   1.64  64.52  12.9  0.00  0.00  0.55  4.50  1.94  0.71  0.82  0.70   1626    313  14.45
 1988 311   133    98  19.0     5  0.13  1007  1128  1007   526  1520  3655  3728  40.8 0.275    35 0.000 0.000 0.000 0.000 0.000   1.64  66.25  12.9  0.00  0.00  0.55  4.50  1.94  0.71  0.82  0.70   1662    353  13.60
 1988 312   134    99  19.0     5  0.13   999  1082  1075   523  1588  3670  3983  39.9 0.293    35 0.000 0.000 0.000 0.000 0.000   1.64  67.71  13.0  0.00  0.00  0.55  4.49  1.94  0.71  0.82  0.70   1699    392  12.90
 1988 313   135   100  19.0     5  0.13   991  1034  1150   520  1663  3688  4261  39.0 0.312    35 0.000 0.000 0.000 0.000 0.000   1.64  69.17  13.0  0.00  0.00  0.55  4.48  1.93  0.70  0.82  0.70   1736    431  14.40
 1988 314   136   101  19.0     5  0.13   983   989  1229   517  1742  3714  4552  38.3 0.331    35 0.000 0.000 0.000 0.000 0.000   1.64  70.56  13.0  0.00  0.00  0.55  4.47  1.93  0.70  0.82  0.70   1773    470  15.40
 1988 315   137   102  19.0     5  0.13   976   949  1302   515  1815  3739  4822  37.6 0.348    35 0.000 0.000 0.000 0.000 0.000   1.63  71.74  13.0  0.00  0.00  0.55  4.47  1.93  0.70  0.82  0.70   1810    509  14.60
 1988 316   138   103  19.0     5  0.13   970   919  1362   512  1875  3764  5044  37.2 0.362    35 0.000 0.000 0.000 0.000 0.000   1.62  72.64  13.0  0.00  0.00  0.55  4.47  1.93  0.70  0.82  0.70   1847    547  12.30
 1988 317   139   104  19.0     5  0.13   964   883  1420   509  1933  3780  5260  36.8 0.376    35 0.000 0.000 0.000 0.000 0.000   1.61  73.47  13.0  0.00  0.00  0.55  4.47  1.92  0.69  0.81  0.70   1884    585  12.20
 1988 318   140   105  19.0     5  0.12   957   843  1484   506  1997  3797  5498  36.3 0.391    35 0.000 0.000 0.000 0.000 0.000   1.60  74.32  13.0  0.00  0.00  0.55  4.46  1.92  0.69  0.81  0.70   1921    624  13.70
 1988 319   141   106  19.0     5  0.12   949   798  1554   503  2067  3814  5755  35.9 0.407    35 0.000 0.000 0.000 0.000 0.000   1.59  75.18  13.0  0.00  0.00  0.55  4.45  1.91  0.69  0.81  0.70   1958    661  15.10
 1988 320   142   107  19.0     5  0.12   940   749  1631   500  2144  3833  6039  35.5 0.425    35 0.000 0.000 0.000 0.000 0.000   1.59  76.07  13.0  0.00  0.00  0.55  4.45  1.91  0.68  0.81  0.70   1995    699  17.15
 1988 321   143   108  19.0     5  0.12   932   701  1707   497  2220  3853  6323  35.1 0.443    35 0.000 0.000 0.000 0.000 0.000   1.59  76.90  13.0  0.00  0.00  0.55  4.44  1.90  0.68  0.81  0.70   2032    736  17.50
 1988 322   144   109  19.0     5  0.12   924   655  1780   494  2293  3873  6594  34.8 0.460    35 0.000 0.000 0.000 0.000 0.000   1.58  77.63  13.0  0.00  0.00  0.55  4.44  1.90  0.68  0.81  0.70   2069    773  17.25
 1988 323   145   110  19.0     5  0.12   916   611  1844   492  2357  3884  6828  34.5 0.475    35 0.000 0.000 0.000 0.000 0.000   1.57  78.24  13.0  0.00  0.00  0.55  4.43  1.90  0.68  0.80  0.70   2106    810  17.15
 1988 324   146   111  19.0     5  0.12   916   611  1861   489  2374  3901  6893  34.4 0.477    35 0.000 0.000 0.000 0.000 0.000   1.56  78.39  12.8  0.00  0.00  0.55  4.43  1.89  0.67  0.80  0.70   2143    847  15.25
 1988 325   147   112  19.0     5  0.12   916   611  1877   485  2390  3917  6953  34.4 0.479    35 0.000 0.000 0.000 0.000 0.000   1.54  78.54  12.7  0.00  0.00  0.55  4.42  1.88  0.67  0.80  0.70   2180    884  13.90
 1988 326   148   113  19.0     5  0.12   916   611  1894   482  2407  3934  7014  34.3 0.481    35 0.000 0.000 0.000 0.000 0.000   1.52  78.69  12.6  0.00  0.00  0.55  4.42  1.88  0.67  0.80  0.70   2217    920  13.75
 1988 327   149   114  19.0     5  0.11   916   611  1911   480  2424  3951  7077  34.2 0.484    35 0.000 0.000 0.000 0.000 0.000   1.51  78.84  12.4  0.00  0.00  0.55  4.41  1.87  0.66  0.80  0.70   2255    956  15.35
 1988 328   150   115  19.0     5  0.11   916   611  1927   476  2439  3967  7136  34.2 0.486    35 0.000 0.000 0.000 0.000 0.000   1.49  78.98  12.3  0.00  0.00  0.55  4.40  1.87  0.66  0.79  0.70   2292    992  15.95
 1988 329   151   116  19.0     5  0.11   916   611  1938   473  2451  3978  7178  34.1 0.487    35 0.000 0.000 0.000 0.000 0.000   1.48  79.07  12.1  0.00  0.00  0.55  4.39  1.86  0.66  0.79  0.71   2329   1028  17.10
 1988 330   152   117  19.0     5  0.11   916   611  1953   470  2466  3993  7233  34.1 0.489    35 0.000 0.000 0.000 0.000 0.000   1.47  79.20  12.0  0.00  0.00  0.55  4.38  1.85  0.65  0.79  0.70   2367   1063  15.55
 1988 331   153   118  19.0     5  0.11   916   611  1967   467  2480  4007  7285  34.0 0.491    35 0.000 0.000 0.000 0.000 0.000   1.45  79.32  11.8  0.00  0.00  0.55  4.37  1.85  0.65  0.79  0.71   2404   1098  16.20
 1988 332   154   119  19.0     5  0.11   916   611  1978   464  2491  4018  7326  34.0 0.492    35 0.000 0.000 0.000 0.000 0.000   1.44  79.41  11.6  0.00  0.00  0.55  4.35  1.84  0.65  0.79  0.71   2441   1133  16.40
 1988 333   155   120  19.0     6  0.11   916   611  1978   464  2491  4018  7326  34.0 0.492    35 0.000 0.000 0.000 0.000 0.000   1.44  79.41  11.6  0.00  0.00  0.55  4.34  1.84  0.65  0.79  0.71   2441   1133  13.45
 1988 334   156   121  19.0    20  0.11   916   611  1978   464  2491  4018  7326  34.0 0.492    35 0.000 0.000 0.000 0.000 0.000   1.44  79.41  11.6  0.00  0.00  0.55  4.32  1.83  0.64  0.78  0.71   2441   1133   0.00

*DSSAT Cropping System Model Ver. 4.6.1.000 -release      DEC 02, 2018; 12:33:07
                                                                                
*RUN   4        : 89_01                     RICER046 SSKT0001    4              
 MODEL          : RICER046 - Rice                                               
 EXPERIMENT     : SSKT0001 RI mulation, Thailand                                
 DATA PATH      : C:\DSSAT46\Rice\                                              
[...]
!  and    after after  Leaf  Grow  Area  <------------ kg/Ha ------------->   per  wght  Harv Tillr  <--- Water ---->                Nit   -ing  Leaf  Hght Brdth Depth  <---- cm3/cm3 of soil -----> <--(kg/ha)-->  Therm  
!     DOY start plant   Num Stage Index  Leaf  Stem Grain  Root Panic  Crop    m2    mg  Indx   No.  Phot  Grow  Excs  Nitr Potas     %      %   Area    m     m     m    0-5  5-15 15-30 30-4242-100   Surf   Soil   Days  
@YEAR DOY   DAS   DAP  L#SD  GSTD  LAID  LWAD  SWAD  GWAD  RWAD  EWAD  CWAD  G#AD  GWGD  HIAD  T#AD  WSPD  WSGD  EWSD  NSTD  KSTD   LN%D   SH%D  SLAD  CHTD  CWID  RDPD  RL1D  RL2D  RL3D  RL4D  RL5D  SNW0C  SNW1C   DTTD  
 2017 241    63     0   7.0     1  0.24   256    28     0   127     0   284     0   0.0 0.000    33 0.000 0.000 0.000 0.000 0.000   2.91   0.00  93.2  0.00  0.00  0.05  0.84  0.11  0.00  0.00  0.00      0      0  19.01
 2017 242    64     1   8.0     1  0.23   256    28     0   131     0   284     0   0.0 0.000    33 0.000 0.000 0.000 0.398 0.000   2.94   0.00  91.8  0.00  0.00  0.08  0.89  0.11  0.00  0.00  0.00      0      0  20.79
 2017 243    65     2   8.0     1  0.23   256    28     0   138     0   284     0   0.0 0.000    33 0.000 0.000 0.000 0.362 0.000   2.97   0.00  90.5  0.00  0.00  0.12  0.94  0.14  0.00  0.00  0.00      0      0  20.86
 2017 244    66     3   8.0     1  0.23   256    28     0   147     0   285     0   0.0 0.000    33 0.000 0.000 0.000 0.320 0.000   3.00   0.00  89.3  0.00  0.00  0.16  0.99  0.20  0.00  0.00  0.00      1      0  21.50
 2017 245    67     4   8.0     1  0.23   257    28     0   161     0   285     0   0.0 0.000    33 0.000 0.000 0.000 0.272 0.000   3.00   0.00  88.1  0.00  0.00  0.20  1.06  0.27  0.00  0.00  0.00      1      0  21.71
 2017 246    68     5   9.0     1  0.22   257    28     0   178     0   286     0   0.0 0.000    33 0.000 0.000 0.000 0.227 0.000   3.04   0.00  86.9  0.00  0.00  0.24  1.16  0.38  0.00  0.00  0.00      1      0  21.51
 2017 247    69     6   9.0     2  0.23   260    32     0   190     0   292     0   0.0 0.000    71 0.000 0.000 0.000 0.000 0.000   2.99   0.00  87.2  0.00  0.00  0.28  1.28  0.51  0.01  0.00  0.00      2      0  22.48
 2017 248    70     7   9.0     2  0.23   265    36     0   205     0   302     0   0.0 0.000    76 0.000 0.000 0.000 0.000 0.000   2.90   0.00  87.2  0.00  0.00  0.32  1.37  0.60  0.01  0.00  0.00      3      0  22.19
 2017 249    71     8   9.0     2  0.24   270    42     0   218     0   312     0   0.0 0.000    81 0.000 0.000 0.000 0.223 0.000   2.84   0.00  87.2  0.00  0.00  0.36  1.47  0.70  0.01  0.01  0.00      3      0  21.43
 2017 250    72     9  10.0     2  0.24   275    49     0   231     0   324     0   0.0 0.000    85 0.000 0.000 0.000 0.246 0.000   2.73   0.00  87.3  0.00  0.00  0.39  1.54  0.79  0.02  0.02  0.00      4      0  21.20
 2017 251    73    10  10.0     2  0.25   282    59     0   244     0   341     0   0.0 0.000    89 0.000 0.000 0.000 0.290 0.000   2.59   0.00  87.8  0.00  0.00  0.43  1.61  0.88  0.02  0.05  0.00      5      0  21.00
 2017 252    74    11  10.0     2  0.26   294    80     0   250     0   374     0   0.0 0.000    93 0.000 0.000 0.000 0.348 0.000   2.36   0.00  89.6  0.00  0.00  0.47  1.68  0.96  0.02  0.07  0.01      6      0  22.45
 2017 253    75    12  10.0     2  0.27   303    98     0   255     0   402     0   0.0 0.000    96 0.000 0.000 0.000 0.446 0.000   2.20   0.00  90.3  0.00  0.00  0.51  1.71  1.00  0.02  0.08  0.02      7      0  21.42
 2017 254    76    13  11.0     2  0.28   311   118     0   259     0   429     0   0.0 0.000    98 0.000 0.000 0.000 0.517 0.000   2.06   0.00  90.7  0.00  0.00  0.55  1.73  1.03  0.02  0.08  0.02      9      0  22.36
 2017 255    77    14  11.0     2  0.29   316   134     0   262     0   451     0   0.0 0.000    99 0.000 0.000 0.000 0.578 0.000   1.96   0.00  90.4  0.00  0.00  0.59  1.76  1.05  0.03  0.09  0.04     10      0  19.55
 2017 256    78    15  11.0     2  0.29   321   152     0   265     0   473     0   0.0 0.000   100 0.000 0.000 0.000 0.621 0.000   1.87   0.00  90.0  0.00  0.00  0.63  1.77  1.07  0.03  0.10  0.04     12      0  21.05
 2017 257    79    16  11.0     2  0.29   324   161     0   265     0   485     0   0.0 0.000   100 0.000 0.000 0.000 0.661 0.000   1.82   0.00  89.0  0.00  0.00  0.66  1.79  1.08  0.03  0.10  0.05     13      0  20.40
 2017 258    80    17  11.0     2  0.29   326   169     0   265     0   495     0   0.0 0.000   100 0.000 0.000 0.000 0.678 0.000   1.79   0.00  87.9  0.00  0.00  0.70  1.79  1.09  0.03  0.10  0.05     15      0  17.00
 2017 259    81    18  12.0     2  0.29   329   182     0   266     0   511     0   0.0 0.000   101 0.000 0.000 0.000 0.694 0.000   1.73   0.00  87.0  0.00  0.00  0.73  1.79  1.09  0.03  0.11  0.05     17      0  19.30
 2017 260    82    19  12.0     2  0.28   331   195     0   268     0   527     0   0.0 0.000   101 0.000 0.000 0.000 0.717 0.000   1.68   0.00  86.0  0.00  0.00  0.76  1.80  1.10  0.03  0.11  0.06     19      0  20.00
 2017 261    83    20  12.0     2  0.28   334   209     0   269     0   543     0   0.0 0.000   101 0.000 0.000 0.000 0.737 0.000   1.64   0.00  85.0  0.00  0.00  0.80  1.80  1.10  0.03  0.11  0.06     22      0  20.10
 2017 262    84    21  12.0     2  0.28   336   221     0   270     0   556     0   0.0 0.000   102 0.000 0.000 0.000 0.756 0.000   1.60   0.00  83.9  0.00  0.00  0.84  1.81  1.11  0.03  0.12  0.06     24      0  21.68
 2017 263    85    22  12.0     2  0.28   337   229     0   270     0   567     0   0.0 0.000   102 0.000 0.000 0.000 0.770 0.000   1.61   0.00  82.6  0.00  0.00  0.88  1.81  1.11  0.03  0.12  0.07     26      0  18.25
 2017 264    86    23  12.0     2  0.28   339   239     0   270     0   578     0   0.0 0.000   103 0.000 0.000 0.000 0.763 0.000   1.58   0.00  81.4  0.00  0.00  0.91  1.81  1.11  0.03  0.12  0.07     29      0  19.70
 2017 265    87    24  13.0     2  0.27   340   249     0   270     0   589     0   0.0 0.000   103 0.000 0.000 0.000 0.773 0.000   1.56   0.00  80.1  0.00  0.00  0.94  1.81  1.11  0.03  0.12  0.07     32      0  19.50
 2017 266    88    25  13.0     2  0.27   342   258     0   270     0   600     0   0.0 0.000   103 0.000 0.000 0.000 0.780 0.000   1.53   0.00  78.9  0.00  0.00  0.98  1.81  1.11  0.03  0.12  0.07     35      0  19.40
 2017 267    89    26  13.0     3  0.26   342   267     0   269     0   609     0   0.0 0.000    94 0.000 0.000 0.000 0.787 0.000   1.51   0.00  77.4  0.00  0.00  1.00  1.83  1.11  0.03  0.12  0.08     38      0  19.00
 2017 268    90    27  13.0     3  0.26   343   275     0   268     0   618     0   0.0 0.000    86 0.000 0.000 0.000 0.788 0.000   1.49   0.00  75.8  0.00  0.00  1.00  1.83  1.11  0.03  0.12  0.08     41      0  19.50
 2017 269    91    28  13.0     3  0.25   343   285     0   267     0   628     0   0.0 0.000    79 0.000 0.000 0.000 0.793 0.000   1.47   0.00  74.3  0.00  0.00  1.00  1.82  1.11  0.03  0.12  0.08     45      0  19.60
 2017 270    92    29  13.0     3  0.25   343   296     0   266     0   639     0   0.0 0.000    73 0.000 0.000 0.000 0.799 0.000   1.44   0.00  72.8  0.00  0.00  1.00  1.82  1.11  0.03  0.12  0.08     48      0  20.50
 2017 271    93    30  14.0     3  0.24   344   305     0   265     0   649     0   0.0 0.000    68 0.000 0.000 0.000 0.807 0.000   1.42   0.00  71.2  0.00  0.00  1.00  1.82  1.12  0.03  0.12  0.08     52      0  20.90
 2017 272    94    31  14.0     3  0.24   344   313     0   264     0   657     0   0.0 0.000    63 0.000 0.000 0.000 0.812 0.000   1.40   0.00  69.7  0.00  0.00  1.00  1.82  1.12  0.03  0.12  0.08     56      0  19.90
 2017 273    95    32  14.0     3  0.23   344   321     0   263     0   666     0   0.0 0.000    59 0.000 0.000 0.000 0.810 0.000   1.38   0.00  68.1  0.00  0.00  1.00  1.82  1.12  0.03  0.12  0.08     60      0  19.95
 2017 274    96    33  14.0     3  0.23   345   330     0   262     0   675     0   0.0 0.000    56 0.000 0.000 0.000 0.808 0.000   1.36   0.00  66.6  0.00  0.00  1.00  1.82  1.12  0.03  0.12  0.08     64      0  20.15
 2017 275    97    34  14.0     3  0.22   345   337     0   261     0   682     0   0.0 0.000    53 0.000 0.000 0.000 0.806 0.000   1.35   0.00  65.0  0.00  0.00  1.00  1.81  1.12  0.03  0.12  0.08     68      0  19.30
 2017 276    98    35  14.0     3  0.22   345   344     0   259     0   689     0   0.0 0.000    50 0.000 0.000 0.000 0.802 0.000   1.34   0.00  63.4  0.00  0.00  1.00  1.81  1.12  0.03  0.12  0.08     73      0  18.25
 2017 277    99    36  14.0     3  0.21   345   350     0   258     0   695     0   0.0 0.000    48 0.000 0.000 0.000 0.797 0.000   1.32   0.00  61.8  0.00  0.00  1.00  1.81  1.12  0.03  0.12  0.08     77      0  17.75
 2017 278   100    37  15.0     3  0.21   346   358     0   257     0   703     0   0.0 0.000    46 0.000 0.000 0.000 0.792 0.000   1.31   0.00  60.3  0.00  0.00  1.00  1.80  1.12  0.03  0.12  0.08     82      0  19.15
 2017 279   101    38  15.0     3  0.20   346   364     0   255     0   710     0   0.0 0.000    44 0.000 0.000 0.000 0.792 0.000   1.30   0.00  58.7  0.00  0.00  1.00  1.80  1.12  0.03  0.12  0.08     87      0  19.00
 2017 280   102    39  15.0     3  0.20   346   370     0   254     0   717     0   0.0 0.000    42 0.000 0.000 0.000 0.788 0.000   1.29   0.00  57.1  0.00  0.00  1.00  1.79  1.12  0.03  0.12  0.08     92      0  19.95
 2017 281   103    40  15.0     3  0.19   346   379     0   253     0   725     0   0.0 0.000    41 0.000 0.000 0.000 0.784 0.000   1.28   0.00  55.6  0.00  0.00  1.00  1.79  1.12  0.03  0.12  0.08     97      0  19.60
 2017 282   104    41  15.0     3  0.19   347   386     0   252     0   733     0   0.0 0.000    40 0.000 0.000 0.000 0.781 0.000   1.27   0.00  54.0  0.00  0.00  1.00  1.78  1.12  0.03  0.12  0.08    103      0  19.90
 2017 283   105    42  15.0     3  0.18   347   392     0   251     0   739     0   0.0 0.000    39 0.000 0.000 0.000 0.774 0.000   1.27   0.00  52.4  0.00  0.00  1.00  1.78  1.11  0.03  0.12  0.08    108      0  19.95
 2017 284   106    43  15.0     3  0.18   347   399     0   249     0   746     0   0.0 0.000    38 0.000 0.000 0.000 0.763 0.000   1.26   0.00  50.8  0.00  0.00  1.00  1.77  1.11  0.03  0.12  0.08    114      0  20.30
 2017 285   107    44  16.0     3  0.17   348   405     0   248     0   753     0   0.0 0.000    38 0.000 0.000 0.000 0.755 0.000   1.29   0.00  49.3  0.00  0.00  1.00  1.77  1.11  0.03  0.12  0.08    119      0  19.25
 2017 286   108    45  16.0     3  0.17   348   414     0   247     0   762     0   0.0 0.000    37 0.000 0.000 0.000 0.719 0.000   1.30   0.00  47.7  0.00  0.00  1.00  1.76  1.11  0.03  0.12  0.08    125      0  19.90
 2017 287   109    46  16.0     3  0.16   348   424     0   247     0   773     0   0.0 0.000    36 0.000 0.000 0.000 0.691 0.000   1.29   0.00  46.2  0.00  0.00  1.00  1.76  1.11  0.03  0.12  0.08    132      0  19.60
 2017 288   110    47  16.0     3  0.16   349   435     0   246     0   784     0   0.0 0.000    36 0.000 0.000 0.000 0.683 0.000   1.28   0.00  44.7  0.00  0.00  1.00  1.76  1.11  0.03  0.12  0.08    138      0  19.50
 2017 289   111    48  16.0     3  0.15   349   444     0   245     0   793     0   0.0 0.000    36 0.000 0.000 0.000 0.674 0.000   1.27   0.00  43.2  0.00  0.00  1.00  1.75  1.11  0.03  0.12  0.08    144      0  20.35
 2017 290   112    49  16.0     3  0.15   350   452     0   245     0   802     0   0.0 0.000    35 0.000 0.000 0.000 0.665 0.000   1.26   0.00  41.7  0.00  0.00  1.00  1.75  1.11  0.03  0.12  0.08    151      0  17.15
 2017 291   113    50  16.0     3  0.14   350   463     0   244     0   813     0   0.0 0.000    35 0.000 0.000 0.000 0.653 0.000   1.25   0.00  40.1  0.00  0.00  1.00  1.74  1.11  0.03  0.12  0.08    157      0  18.50
 2017 292   114    51  17.0     3  0.14   350   473     0   244     0   824     0   0.0 0.000    35 0.000 0.000 0.000 0.642 0.000   1.25   0.00  38.6  0.00  0.00  1.00  1.74  1.11  0.03  0.12  0.08    164      0  18.75
 2017 293   115    52  17.0     3  0.13   351   485     0   243     0   836     0   0.0 0.000    35 0.000 0.000 0.000 0.629 0.000   1.24   0.00  37.1  0.00  0.00  1.00  1.74  1.11  0.03  0.12  0.08    171      0  19.05
 2017 294   116    53  17.0     3  0.12   351   496     0   243     0   847     0   0.0 0.000    34 0.000 0.000 0.000 0.617 0.000   1.23   0.00  35.6  0.00  0.00  1.00  1.73  1.11  0.03  0.12  0.09    179      0  19.55
 2017 295   117    54  17.0     3  0.12   352   507     0   243     0   859     0   0.0 0.000    34 0.000 0.000 0.000 0.604 0.000   1.22   0.00  34.1  0.00  0.00  1.00  1.73  1.11  0.03  0.12  0.09    186      0  19.45
 2017 296   118    55  17.0     3  0.11   352   518     0   242     0   870     0   0.0 0.000    34 0.000 0.000 0.000 0.592 0.000   1.21   0.00  32.6  0.00  0.00  1.00  1.72  1.11  0.03  0.12  0.09    193      0  18.50
 2017 297   119    56  17.0     3  0.11   353   527     0   241     0   879     0   0.0 0.000    34 0.000 0.000 0.000 0.579 0.000   1.20   0.00  31.1  0.00  0.00  1.00  1.72  1.11  0.03  0.12  0.09    201      0  18.30
 2017 298   120    57  17.0     3  0.10   353   536     0   241     0   890     0   0.0 0.000    34 0.000 0.000 0.000 0.565 0.000   1.19   0.00  29.6  0.00  0.00  1.00  1.72  1.11  0.03  0.12  0.09    209      0  18.55
 2017 299   121    58  17.0     4  0.10   353   547     0   240     0   900     0   0.0 0.000    34 0.000 0.000 0.000 0.554 0.000   1.18   0.00  29.1  0.00  0.00  1.00  1.71  1.11  0.03  0.13  0.09    217      0  18.80
 2017 300   122    59  17.0     4  0.10   353   558     0   240     0   911     0   0.0 0.000    34 0.000 0.000 0.000 0.546 0.000   1.17   0.00  28.5  0.00  0.00  1.00  1.71  1.11  0.03  0.13  0.09    225      0  18.25
 2017 301   123    60  17.0     4  0.10   353   568     0   239     0   921     0   0.0 0.000    34 0.000 0.000 0.000 0.540 0.000   1.16   0.00  28.0  0.00  0.00  1.00  1.71  1.10  0.03  0.13  0.09    232      0  17.90
 2017 302   124    61  17.0     4  0.10   353   579     0   239     0   932     0   0.0 0.000    34 0.000 0.000 0.000 0.524 0.000   1.16   0.00  27.5  0.00  0.00  1.00  1.71  1.10  0.03  0.13  0.09    240      0  18.30
 2017 303   125    62  17.0     4  0.10   353   589     0   238     0   943     0   0.0 0.000    34 0.000 0.000 0.000 0.504 0.000   1.15   0.00  27.1  0.00  0.00  1.00  1.71  1.10  0.03  0.13  0.10    248      0  17.25
 2017 304   126    63  17.0     4  0.09   353   599     0   238     0   952     0   0.0 0.000    34 0.000 0.000 0.000 0.485 0.000   1.15   0.00  26.6  0.00  0.00  1.00  1.71  1.10  0.03  0.13  0.10    257      0  15.65
 2017 305   127    64  17.0     4  0.09   353   605     0   236     0   958     0   0.0 0.000    34 0.000 0.000 0.000 0.459 0.000   1.16   0.00  26.2  0.00  0.00  1.00  1.70  1.10  0.03  0.13  0.10    265      0  14.70
 2017 306   128    65  17.0     5  0.09   353   313   143   235   306   972   529  57.9 0.147    34 0.000 0.000 0.000 0.377 0.000   1.47  46.63  25.8  0.00  0.00  1.00  1.70  1.09  0.03  0.13  0.10    273      0  17.00
 2017 307   129    66  17.0     5  0.09   353   325   152   235   315   993   563  56.0 0.153    34 0.000 0.000 0.000 0.000 0.000   1.44  48.18  25.7  0.00  0.00  1.00  1.70  1.09  0.03  0.13  0.10    281     18  16.40
 2017 308   130    67  17.0     5  0.09   353   328   160   234   324  1005   594  54.5 0.160    34 0.000 0.000 0.000 0.000 0.000   1.43  49.53  25.5  0.00  0.00  1.00  1.70  1.09  0.03  0.13  0.10    289     35  15.60
 2017 309   131    68  17.0     5  0.09   353   331   168   233   332  1016   623  53.2 0.166    34 0.000 0.000 0.000 0.000 0.000   1.43  50.73  25.4  0.00  0.00  1.00  1.70  1.09  0.03  0.13  0.10    297     53  14.80
 2017 310   132    69  17.0     5  0.09   353   336   176   232   340  1029   653  52.0 0.171    34 0.000 0.000 0.000 0.000 0.000   1.41  51.92  25.2  0.00  0.00  1.00  1.70  1.08  0.03  0.13  0.10    305     70  15.85
 2017 311   133    70  17.0     5  0.09   352   332   198   232   362  1046   735  49.2 0.190    34 0.000 0.000 0.000 0.000 0.000   1.42  54.83  25.1  0.00  0.00  1.00  1.69  1.08  0.03  0.13  0.10    314     88  16.95
 2017 312   134    71  17.0     5  0.09   351   327   221   231   384  1062   818  47.0 0.208    34 0.000 0.000 0.000 0.000 0.000   1.44  57.49  25.0  0.00  0.00  1.00  1.70  1.08  0.03  0.13  0.10    322    105  17.90
 2017 313   135    72  17.0     5  0.09   350   321   244   231   407  1079   904  45.1 0.226    34 0.000 0.000 0.000 0.000 0.000   1.45  59.89  24.9  0.00  0.00  1.00  1.70  1.08  0.03  0.13  0.11    330    122  18.80
 2017 314   136    73  17.0     5  0.09   349   315   267   230   430  1094   989  43.5 0.244    34 0.000 0.000 0.000 0.000 0.000   1.47  62.03  24.8  0.00  0.00  1.00  1.70  1.07  0.03  0.13  0.11    338    140  19.30
 2017 315   137    74  17.0     5  0.09   348   309   289   230   453  1110  1071  42.3 0.261    34 0.000 0.000 0.000 0.000 0.000   1.48  63.90  24.7  0.00  0.00  1.00  1.70  1.07  0.03  0.13  0.11    347    157  19.30
 2017 316   138    75  17.0     5  0.09   347   303   311   229   474  1124  1151  41.2 0.277    34 0.000 0.000 0.000 0.000 0.000   1.50  65.54  24.5  0.00  0.00  1.00  1.70  1.07  0.03  0.14  0.11    355    174  19.25
 2017 317   139    76  17.0     5  0.08   346   296   332   228   496  1138  1231  40.3 0.292    34 0.000 0.000 0.000 0.000 0.000   1.51  67.04  24.4  0.00  0.00  1.00  1.70  1.06  0.03  0.14  0.11    363    191  19.80
 2017 318   140    77  17.0     5  0.08   345   291   353   228   516  1152  1306  39.5 0.306    34 0.000 0.000 0.000 0.000 0.000   1.53  68.34  24.2  0.00  0.00  1.00  1.70  1.06  0.03  0.14  0.11    371    208  19.25
 2017 319   141    78  17.0     5  0.08   343   283   373   227   536  1163  1381  38.8 0.321    34 0.000 0.000 0.000 0.000 0.000   1.55  69.53  24.1  0.00  0.00  1.00  1.70  1.06  0.03  0.14  0.11    380    225  19.80
 2017 320   142    79  17.0     5  0.08   342   276   393   226   557  1175  1456  38.2 0.335    34 0.000 0.000 0.000 0.000 0.000   1.57  70.65  23.9  0.00  0.00  1.00  1.70  1.05  0.03  0.14  0.11    388    242  20.49
 2017 321   143    80  17.0     5  0.08   341   269   413   225   577  1187  1531  37.7 0.348    34 0.000 0.000 0.000 0.000 0.000   1.60  71.67  23.8  0.00  0.00  1.00  1.70  1.05  0.03  0.14  0.11    397    259  20.86
 2017 322   144    81  17.0     5  0.08   340   261   433   224   596  1197  1603  37.2 0.362    34 0.000 0.000 0.000 0.000 0.000   1.62  72.59  23.6  0.00  0.00  1.00  1.70  1.04  0.03  0.14  0.11    405    276  20.91
 2017 323   145    82  17.0     5  0.08   338   254   451   222   614  1206  1670  36.8 0.374    34 0.000 0.000 0.000 0.000 0.000   1.64  73.40  23.4  0.00  0.00  1.00  1.70  1.04  0.03  0.14  0.11    413    293  20.25
 2017 324   146    83  17.0     5  0.08   337   247   467   221   631  1215  1731  36.4 0.385    34 0.000 0.000 0.000 0.000 0.000   1.67  74.10  23.2  0.00  0.00  1.00  1.70  1.04  0.03  0.14  0.11    422    309  18.80
 2017 325   147    84  17.0     5  0.08   328   247   477   220   641  1216  1768  36.2 0.393    34 0.000 0.000 0.000 0.000 0.000   1.69  74.50  23.4  0.00  0.00  1.00  1.70  1.03  0.03  0.14  0.12    430    326  18.10
 2017 326   148    85  17.0     6  0.08   328   247   477   220   641  1216  1768  36.2 0.393    34 0.000 0.000 0.000 0.000 0.000   1.69  74.50  23.4  0.00  0.00  1.00  1.69  1.03  0.03  0.14  0.12    430    326  17.60
 2017 327   149    86  17.0    20  0.08   328   247   477   220   641  1216  1768  36.2 0.393    34 0.000 0.000 0.000 0.000 0.000   1.69  74.50  23.4  0.00  0.00  1.00  1.69  1.02  0.03  0.14  0.12    430    326   0.00
