*SOIL WATER DAILY OUTPUT FILE

*DSSAT Cropping System Model Ver. 4.6.1.000 -release      DEC 02, 2018; 12:33:06
                                                                                
*RUN   1        : 86_01                     RICER046 SSKT0001    1              
 MODEL          : RICER046 - Rice                                               
 EXPERIMENT     : SSKT0001 RI mulation, Thailand                                
 DATA PATH      : C:\DSSAT46\Rice\                                              
 TREATMENT  1   : 86_01                     RICER046                            
  
!                                                                                                 Soil water content (mm3/mm3) by soil depth (cm):
!                                                                                                 0-5    5-15   15-30   30-42   42-55   55-67   67-80  80-100
@YEAR DOY   DAS  SWTD  SWXD   ROFC   DRNC   PREC  IR#C  IRRC  DTWT    MWTD  TDFD  TDFC   ROFD    SW1D    SW2D    SW3D    SW4D    SW5D    SW6D    SW7D    SW8D    
 1986 178     0   228   142      0      0      0     0     0     0    0.00   0.0   0.0   0.00   0.200   0.200   0.200   0.200   0.200   0.200   0.282   0.286
 1986 179     1   259   174      0      0     38     0     0    50    0.00   0.0   0.0   0.00   0.334   0.356   0.275   0.196   0.197   0.198   0.279   0.283
 1986 180     2   252   167      0      0     38     0     0   100    0.00   0.0   0.0   0.00   0.291   0.339   0.267   0.192   0.194   0.195   0.276   0.281
 1986 181     3   246   160      0      0     38     0     0   100    0.00   0.0   0.0   0.00   0.254   0.322   0.260   0.189   0.191   0.193   0.273   0.278
 1986 182     4   239   154      0      0     38     0     0   100    0.00   0.0   0.0   0.00   0.222   0.306   0.252   0.185   0.188   0.191   0.270   0.275
 1986 183     5   233   148      0      0     38     0     0   100    0.00   0.0   0.0   0.00   0.195   0.292   0.245   0.181   0.185   0.189   0.267   0.273
 1986 184     6   228   142      0      0     38     0     0   100    0.00   0.0   0.0   0.00   0.171   0.278   0.238   0.178   0.182   0.186   0.264   0.270
 1986 185     7   222   137      0      0     38     0     0   100    0.00   0.0   0.0   0.00   0.151   0.265   0.231   0.174   0.179   0.184   0.261   0.267
 1986 186     8   223   137      0      0     44     0     0   100    0.00   0.0   0.0   0.00   0.243   0.252   0.225   0.171   0.176   0.182   0.258   0.265
 1986 187     9   217   132      0      0     44     0     0   100    0.00   0.0   0.0   0.00   0.213   0.240   0.219   0.168   0.173   0.180   0.255   0.262
 1986 188    10   213   127      0      0     45     0     0   100    0.00   0.0   0.0   0.00   0.202   0.229   0.212   0.164   0.171   0.178   0.252   0.260
 1986 189    11   208   123      0      0     45     0     0   100    0.00   0.0   0.0   0.00   0.186   0.218   0.206   0.161   0.168   0.176   0.250   0.257
 1986 190    12   205   120      0      0     47     0     0   100    0.00   0.0   0.0   0.00   0.193   0.208   0.201   0.158   0.165   0.174   0.247   0.255
 1986 191    13   202   117      0      0     48     0     0   100    0.00   0.0   0.0   0.00   0.203   0.199   0.195   0.155   0.163   0.172   0.244   0.253
 1986 192    14   198   112      0      0     49     0     0   100    0.00   0.0   0.0   0.00   0.186   0.190   0.190   0.152   0.160   0.170   0.242   0.250
 1986 193    15   193   108      0      0     49     0     0   100    0.00   0.0   0.0   0.00   0.163   0.181   0.184   0.149   0.158   0.168   0.239   0.248
 1986 194    16   189   104      0      0     49     0     0   100    0.00   0.0   0.0   0.00   0.144   0.173   0.179   0.147   0.155   0.166   0.237   0.245
 1986 195    17   185   100      0      0     49     0     0   100    0.00   0.0   0.0   0.00   0.129   0.165   0.174   0.144   0.153   0.164   0.234   0.243
 1986 196    18   181    96      0      0     49     0     0   100    0.00   0.0   0.0   0.00   0.115   0.157   0.169   0.141   0.151   0.162   0.232   0.241
 1986 197    19   178    92      0      0     49     0     0   100    0.00   0.0   0.0   0.00   0.102   0.150   0.165   0.138   0.148   0.161   0.229   0.239
 1986 198    20   202   117      0      0     77     0     0   100    0.00   0.0   0.0   0.00   0.351   0.289   0.162   0.137   0.147   0.159   0.227   0.237
 1986 199    21   199   113      0      0     79     0     0   100    0.00   0.0   0.0   0.00   0.324   0.290   0.157   0.134   0.145   0.158   0.225   0.235
 1986 200    22   211   126      0      0     96     0     0   100    0.00   0.0   0.0   0.00   0.342   0.360   0.195   0.133   0.143   0.156   0.223   0.234
 1986 201    23   228   142      0      0    117     0     0   100    0.00   0.0   0.0   0.00   0.339   0.358   0.313   0.131   0.142   0.155   0.222   0.232
 1986 202    24   244   158      0      0    135     0     0   100    0.00   0.0   0.0   0.00   0.351   0.363   0.351   0.210   0.141   0.155   0.221   0.231
 1986 203    25   246   161      0      0    141     0     0   100    0.00   0.0   0.0   0.00   0.353   0.363   0.351   0.237   0.140   0.154   0.220   0.230
 1986 204    26   247   162      0      0    145     0     0   100    0.00   0.0   0.0   0.00   0.352   0.363   0.351   0.249   0.139   0.153   0.219   0.230
 1986 205    27   253   167      0      0    155     0     0   100    0.00   0.0   0.0   0.00   0.337   0.357   0.348   0.314   0.138   0.152   0.217   0.228
 1986 206    28   253   168      0      0    161     0     0   100    0.00   0.0   0.0   0.00   0.336   0.357   0.348   0.328   0.136   0.151   0.216   0.227
 1986 207    29   259   173      0      0    172     0     0   100    0.00   0.0   0.0   0.00   0.341   0.359   0.349   0.375   0.135   0.150   0.214   0.225
 1986 208    30   251   166      0      0    172     0     0   100    0.00   0.0   0.0   0.00   0.299   0.342   0.339   0.368   0.133   0.148   0.212   0.223
 1986 209    31   244   159      0      0    172     0     0   100    0.00   0.0   0.0   0.00   0.261   0.325   0.329   0.360   0.131   0.147   0.210   0.221
 1986 210    32   238   152      0      0    172     0     0   100    0.00   0.0   0.0   0.00   0.229   0.310   0.320   0.353   0.129   0.145   0.208   0.219
 1986 211    33   232   146      0      0    172     0     0   100    0.00   0.0   0.0   0.00   0.200   0.294   0.311   0.346   0.127   0.144   0.206   0.217
 1986 212    34   226   140      0      0    172     0     0   100    0.00   0.0   0.0   0.00   0.176   0.281   0.302   0.339   0.125   0.142   0.203   0.215
 1986 213    35   220   135      0      0    172     0     0   100    0.00   0.0   0.0   0.00   0.155   0.267   0.293   0.332   0.123   0.141   0.201   0.213
 1986 214    36   216   131      0      0    172     0     0   100    0.00   0.0   0.0   0.00   0.137   0.258   0.288   0.328   0.122   0.140   0.200   0.212
 1986 215    37   210   125      0      0    172     0     0   100    0.00   0.0   0.0   0.00   0.107   0.244   0.280   0.321   0.120   0.138   0.198   0.210
 1986 216    38   211   125      0      0    178     0     0   100    0.00   0.0   0.0   0.00   0.208   0.228   0.272   0.315   0.118   0.137   0.196   0.208
 1986 217    39   204   119      0      0    178     0     0   100    0.00   0.0   0.0   0.00   0.162   0.215   0.264   0.308   0.116   0.135   0.194   0.206
 1986 218    40   200   115      0      0    178     0     0   100    0.00   0.0   0.0   0.00   0.147   0.207   0.259   0.304   0.115   0.134   0.192   0.205
 1986 219    41   233   147      0      0    215     0     0   100    0.00   0.0   0.0   0.00   0.344   0.360   0.313   0.300   0.114   0.133   0.191   0.204
 1986 220    42   243   158      0      0    229     0     0   100    0.00   0.0   0.0   0.00   0.342   0.360   0.350   0.346   0.113   0.133   0.190   0.203
 1986 221    43   260   174      0      0    249     0     0   100    0.00   0.0   0.0   0.00   0.345   0.361   0.350   0.401   0.189   0.132   0.189   0.202
 1986 222    44   257   172      0      0    251     0     0   100    0.00   0.0   0.0   0.00   0.340   0.360   0.346   0.397   0.187   0.131   0.188   0.201
 1986 223    45   254   169      0      0    252     0     0   100    0.00   0.0   0.0   0.00   0.322   0.353   0.343   0.394   0.186   0.131   0.188   0.200
 1986 224    46   248   162      0      0    252     0     0   100    0.00   0.0   0.0   0.00   0.277   0.337   0.334   0.387   0.184   0.130   0.186   0.199
 1986 225    47   245   159      0      0    252     0     0   100    0.00   0.0   0.0   0.00   0.257   0.330   0.331   0.384   0.183   0.129   0.185   0.198
 1986 226    48   287   202      0      0    299     0     0   100    0.00   0.0   0.0   0.00   0.339   0.359   0.349   0.400   0.401   0.153   0.184   0.197
 1986 227    49   282   196      0      0    300     0     0   100    0.00   0.0   0.0   0.00   0.307   0.346   0.343   0.394   0.397   0.152   0.183   0.196
 1986 228    50   277   192      0      0    300     0     0   100    0.00   0.0   0.0   0.00   0.276   0.336   0.338   0.390   0.394   0.151   0.182   0.195
 1986 229    51   274   188      0      0    300     0     0   100    0.00   0.0   0.0   0.00   0.256   0.328   0.334   0.387   0.392   0.150   0.182   0.195
 1986 230    52   267   182      0      0    300     0     0   100    0.00   0.0   0.0   0.00   0.215   0.315   0.327   0.381   0.387   0.149   0.181   0.194
 1986 231    53   265   179      0      0    304     0     0   100    0.00   0.0   0.0   0.00   0.257   0.299   0.319   0.374   0.382   0.148   0.179   0.193
 1986 232    54   272   187      0      0    316     0     0   100    0.00   0.0   0.0   0.00   0.339   0.348   0.314   0.371   0.379   0.148   0.179   0.192
 1986 233    55   266   181      0      0    316     0     0   100    0.00   0.0   0.0   0.00   0.293   0.335   0.308   0.365   0.375   0.147   0.178   0.191
 1986 234    56   262   176      0      0    316     0     0   100    0.00   0.0   0.0   0.00   0.263   0.325   0.304   0.361   0.371   0.146   0.177   0.190
 1986 235    57   259   174      0      0    316     0     0   100    0.00   0.0   0.0   0.00   0.245   0.319   0.301   0.359   0.369   0.146   0.177   0.190
 1986 236    58   253   168      0      0    316     0     0   100    0.00   0.0   0.0   0.00   0.209   0.306   0.295   0.353   0.365   0.145   0.176   0.189
 1986 237    59   273   187      0      0    338     0     0   100    0.00   0.0   0.0   0.00   0.353   0.364   0.342   0.351   0.363   0.145   0.175   0.189
 1986 238    60   276   190      0      0    345     0     0   100    0.00   0.0   0.0   0.00   0.340   0.360   0.351   0.379   0.360   0.144   0.175   0.188
 1986 239    61   326   240      0      0    400     0     0   100    0.00   0.0   0.0   0.00   0.337   0.359   0.350   0.400   0.400   0.429   0.240   0.188
 1986 240    62   351   266      0      0    430     0     0   100    0.00   0.0   0.0   0.00   0.340   0.360   0.350   0.400   0.401   0.427   0.428   0.192
 1986 241    63   348   262      0      0    430     0     0   100    0.00   0.0   0.0   0.00   0.320   0.353   0.347   0.397   0.398   0.425   0.427   0.192
 1986 242    64   342   257      0      0    430     0     0   100    0.00   0.0   0.0   0.00   0.293   0.341   0.342   0.392   0.394   0.422   0.424   0.191
 1986 243    65   347   262      0      0    443     0     0   100    0.00   0.0   0.0   0.00   0.329   0.356   0.348   0.398   0.399   0.423   0.421   0.190
 1986 244    66   361   276      0      0    463     0     0   100    0.00   0.0   0.0   0.00   0.331   0.356   0.349   0.398   0.399   0.426   0.427   0.250
 1986 245    67   357   271      0      0    463     0     0   100    0.00   0.0   0.0   0.00   0.306   0.348   0.345   0.395   0.396   0.424   0.425   0.250
 1986 246    68   370   285      0      0    482     0     0    99    0.00   0.0   0.0   0.00   0.337   0.358   0.350   0.399   0.400   0.427   0.427   0.291
 1986 247    69   376   291      0      0    493     0     0    96    0.00   0.0   0.0   0.00   0.345   0.361   0.351   0.400   0.401   0.428   0.428   0.316
 1986 248    70   373   288      0      0    493     0     0    96    0.00   0.0   0.0   0.00   0.327   0.355   0.348   0.398   0.399   0.426   0.426   0.315
 1986 249    71   372   287      0      0    495     0     0    96    0.00   0.0   0.0   0.00   0.348   0.353   0.345   0.394   0.396   0.423   0.425   0.314
 1986 250    72   379   294      0      0    506     0     0    94    0.00   0.0   0.0   0.00   0.349   0.363   0.352   0.401   0.401   0.428   0.428   0.328
 1986 251    73   375   290      0      0    506     0     0    95    0.00   0.0   0.0   0.00   0.327   0.355   0.348   0.398   0.399   0.426   0.426   0.327
 1986 252    74   372   287      0      0    506     0     0    95    0.00   0.0   0.0   0.00   0.310   0.348   0.345   0.395   0.396   0.424   0.425   0.326
 1986 253    75   373   288      0      0    510     0     0    95    0.00   0.0   0.0   0.00   0.355   0.347   0.343   0.393   0.394   0.422   0.423   0.325
 1986 254    76   368   282      0      0    510     0     0    95    0.00   0.0   0.0   0.00   0.324   0.336   0.338   0.388   0.391   0.419   0.421   0.323
 1986 255    77   363   278      0      0    511     0     0    95    0.00   0.0   0.0   0.00   0.314   0.326   0.333   0.384   0.387   0.416   0.418   0.322
 1986 256    78   359   273      0      0    511     0     0    95    0.00   0.0   0.0   0.00   0.297   0.316   0.329   0.380   0.383   0.413   0.415   0.320
 1986 257    79   353   267      0      0    511     0     0    96    0.00   0.0   0.0   0.00   0.265   0.304   0.323   0.374   0.379   0.409   0.412   0.318
 1986 258    80   346   260      0      0    511     0     0    96    0.00   0.0   0.0   0.00   0.231   0.291   0.317   0.369   0.374   0.405   0.409   0.316
 1986 259    81   340   254      0      0    511     0     0    96    0.00   0.0   0.0   0.00   0.202   0.278   0.311   0.363   0.369   0.401   0.405   0.314
 1986 260    82   334   249      0      0    511     0     0    97    0.00   0.0   0.0   0.00   0.178   0.268   0.306   0.358   0.365   0.398   0.402   0.312
 1986 261    83   341   256      0      0    522     0     0    97    0.00   0.0   0.0   0.00   0.348   0.275   0.302   0.355   0.362   0.395   0.400   0.310
 1986 262    84   337   251      0      0    524     0     0    97    0.00   0.0   0.0   0.00   0.335   0.268   0.297   0.350   0.357   0.392   0.396   0.308
 1986 263    85   330   245      0      0    524     0     0    97    0.00   0.0   0.0   0.00   0.300   0.257   0.291   0.345   0.353   0.388   0.393   0.306
 1986 264    86   324   238      0      0    524     0     0    98    0.00   0.0   0.0   0.00   0.265   0.245   0.285   0.339   0.348   0.384   0.389   0.303
 1986 265    87   320   234      0      0    524     0     0    98    0.00   0.0   0.0   0.00   0.245   0.238   0.282   0.336   0.345   0.381   0.387   0.302
 1986 266    88   343   258      0      0    550     0     0    98    0.00   0.0   0.0   0.00   0.351   0.363   0.327   0.333   0.342   0.379   0.385   0.301
 1986 267    89   338   253      0      0    551     0     0    98    0.00   0.0   0.0   0.00   0.326   0.352   0.322   0.329   0.339   0.376   0.383   0.299
 1986 268    90   332   247      0      0    551     0     0    99    0.00   0.0   0.0   0.00   0.294   0.340   0.317   0.324   0.335   0.373   0.380   0.297
 1986 269    91   326   240      0      0    551     0     0    99    0.00   0.0   0.0   0.00   0.261   0.326   0.311   0.319   0.331   0.369   0.376   0.295
 1986 270    92   322   237      0      0    553     0     0    99    0.00   0.0   0.0   0.00   0.281   0.314   0.306   0.314   0.326   0.366   0.373   0.293
 1986 271    93   355   270      0      0    591     0     0    99    0.00   0.0   0.0   0.00   0.343   0.359   0.350   0.400   0.399   0.363   0.370   0.291
 1986 272    94   357   272      0      0    596     0     0   100    0.00   0.0   0.0   0.00   0.353   0.363   0.352   0.401   0.402   0.367   0.369   0.290
 1986 273    95   361   276      0      0    604     0     0   100    0.00   0.0   0.0   0.00   0.348   0.362   0.351   0.401   0.401   0.412   0.367   0.288
 1986 274    96   400   314      0      0    661     0     0     4    0.00   0.0   0.0   0.00   0.348   0.361   0.351   0.400   0.401   0.428   0.428   0.432
 1986 275    97   403   317      0     10    665     0     0     4    0.00   0.0   0.0   0.00   0.363   0.367   0.354   0.403   0.403   0.429   0.429   0.434
 1986 276    98   400   315      0     11    667     0     0     4    0.00   0.0   0.0   0.00   0.349   0.362   0.352   0.401   0.401   0.428   0.428   0.432
 1986 277    99   395   309      0     11    667     0     0     4    0.00   0.0   0.0   0.00   0.321   0.351   0.348   0.397   0.397   0.425   0.425   0.430
 1986 278   100   390   304      0     11    667     0     0    78    0.00   0.0   0.0   0.00   0.296   0.340   0.343   0.392   0.394   0.422   0.422   0.428
 1986 279   101   383   298      0     11    667     0     0    81    0.00   0.0   0.0   0.00   0.266   0.328   0.337   0.387   0.389   0.418   0.419   0.425
 1986 280   102   378   293      0     11    667     0     0    82    0.00   0.0   0.0   0.00   0.241   0.317   0.333   0.383   0.385   0.415   0.416   0.423
 1986 281   103   372   287      0     11    667     0     0    82    0.00   0.0   0.0   0.00   0.213   0.305   0.327   0.377   0.381   0.411   0.413   0.420
 1986 282   104   375   290      0     11    675     0     0    82    0.00   0.0   0.0   0.00   0.345   0.296   0.323   0.373   0.378   0.408   0.410   0.418
 1986 283   105   369   284      0     11    675     0     0    83    0.00   0.0   0.0   0.00   0.315   0.286   0.318   0.369   0.374   0.405   0.407   0.415
 1986 284   106   365   279      0     11    675     0     0    83    0.00   0.0   0.0   0.00   0.291   0.277   0.314   0.365   0.371   0.402   0.405   0.413
 1986 285   107   363   277      0     11    675     0     0    83    0.00   0.0   0.0   0.00   0.279   0.273   0.312   0.363   0.369   0.401   0.403   0.412
 1986 286   108   359   273      0     11    675     0     0    83    0.00   0.0   0.0   0.00   0.259   0.265   0.308   0.360   0.366   0.399   0.401   0.410
 1986 287   109   354   269      0     11    675     0     0    83    0.00   0.0   0.0   0.00   0.239   0.258   0.304   0.357   0.363   0.396   0.399   0.409
 1986 288   110   362   276      0     11    686     0     0    84    0.00   0.0   0.0   0.00   0.348   0.297   0.301   0.353   0.360   0.394   0.396   0.407
 1986 289   111   356   271      0     11    686     0     0    84    0.00   0.0   0.0   0.00   0.319   0.287   0.296   0.349   0.357   0.391   0.394   0.404
 1986 290   112   371   286      0     11    705     0     0    84    0.00   0.0   0.0   0.00   0.350   0.363   0.342   0.346   0.354   0.388   0.392   0.403
 1986 291   113   366   281      0     11    705     0     0    85    0.00   0.0   0.0   0.00   0.323   0.352   0.338   0.343   0.351   0.386   0.389   0.401
 1986 292   114   360   275      0     11    705     0     0    85    0.00   0.0   0.0   0.00   0.292   0.340   0.333   0.338   0.347   0.382   0.386   0.398
 1986 293   115   355   269      0     11    705     0     0    85    0.00   0.0   0.0   0.00   0.266   0.329   0.328   0.334   0.344   0.379   0.383   0.396
 1986 294   116   349   264      0     11    705     0     0    85    0.00   0.0   0.0   0.00   0.239   0.318   0.323   0.330   0.340   0.376   0.380   0.393
 1986 295   117   402   317      0     11    779     0     0    85    0.00   0.0   0.0   0.00   0.361   0.366   0.353   0.403   0.403   0.429   0.429   0.433
 1986 296   118   403   318      0     21    779     0     0    85    0.00   0.0   0.0   0.00   0.366   0.368   0.355   0.404   0.404   0.430   0.430   0.434
 1986 297   119   403   318      0     26    781     0     0    85    0.00   0.0   0.0   0.00   0.363   0.367   0.354   0.403   0.403   0.429   0.429   0.434
 1986 298   120   401   316      0     26    794     0     0     3    0.00   0.0   0.0   0.00   0.353   0.364   0.352   0.402   0.402   0.428   0.428   0.433
 1986 299   121   403   318      0     35    794     0     0     3    0.00   0.0   0.0   0.00   0.363   0.368   0.354   0.403   0.403   0.429   0.429   0.434
 1986 300   122   401   316      0     35    808     0     0     3    0.00   0.0   0.0   0.00   0.354   0.364   0.352   0.402   0.402   0.428   0.428   0.433
 1986 301   123   403   318      0     45    820     0     0     3    0.00   0.0   0.0   0.00   0.364   0.368   0.355   0.403   0.403   0.430   0.430   0.434
 1986 302   124   404   318      0     53    828     0     0     3    0.00   0.0   0.0   0.00   0.367   0.369   0.355   0.404   0.404   0.430   0.430   0.434
 1986 303   125   403   318      0     58    828     0     0     3    0.00   0.0   0.0   0.00   0.364   0.368   0.355   0.403   0.403   0.430   0.430   0.434
 1986 304   126   399   313      0     58    828     0     0     9    0.00   0.0   0.0   0.00   0.341   0.359   0.351   0.400   0.401   0.427   0.427   0.432
 1986 305   127   395   309      0     58    828     0     0    12    0.00   0.0   0.0   0.00   0.319   0.351   0.347   0.397   0.398   0.425   0.425   0.430
 1986 306   128   390   305      0     58    828     0     0    78    0.00   0.0   0.0   0.00   0.296   0.341   0.343   0.393   0.395   0.422   0.422   0.428
 1986 307   129   386   300      0     58    828     0     0    81    0.00   0.0   0.0   0.00   0.274   0.332   0.339   0.390   0.392   0.419   0.420   0.426
 1986 308   130   381   296      0     58    828     0     0    81    0.00   0.0   0.0   0.00   0.253   0.324   0.335   0.386   0.389   0.417   0.418   0.424
 1986 309   131   377   292      0     58    828     0     0    82    0.00   0.0   0.0   0.00   0.233   0.315   0.331   0.383   0.386   0.414   0.415   0.422
 1986 310   132   373   287      0     58    828     0     0    82    0.00   0.0   0.0   0.00   0.215   0.307   0.327   0.379   0.383   0.412   0.413   0.420
 1986 311   133   369   283      0     58    828     0     0    82    0.00   0.0   0.0   0.00   0.197   0.298   0.323   0.376   0.380   0.409   0.410   0.418
 1986 312   134   365   280      0     58    828     0     0    82    0.00   0.0   0.0   0.00   0.182   0.291   0.320   0.373   0.377   0.407   0.408   0.416
 1986 313   135   362   276      0     58    828     0     0    83    0.00   0.0   0.0   0.00   0.170   0.285   0.317   0.370   0.375   0.405   0.406   0.415
 1986 314   136   359   273      0     58    828     0     0    83    0.00   0.0   0.0   0.00   0.157   0.278   0.313   0.367   0.372   0.402   0.404   0.413
 1986 315   137   357   271      0     58    828     0     0    83    0.00   0.0   0.0   0.00   0.150   0.274   0.312   0.365   0.371   0.401   0.403   0.412
 1986 316   138   356   271      0     58    829     0     0    83    0.00   0.0   0.0   0.00   0.166   0.271   0.310   0.364   0.370   0.400   0.402   0.411
 1986 317   139   356   270      0     58    831     0     0    83    0.00   0.0   0.0   0.00   0.185   0.268   0.308   0.362   0.369   0.399   0.401   0.410
 1986 318   140   357   272      0     58    834     0     0    83    0.00   0.0   0.0   0.00   0.241   0.264   0.306   0.361   0.367   0.398   0.400   0.409
 1986 319   141   355   269      0     58    834     0     0    84    0.00   0.0   0.0   0.00   0.230   0.259   0.304   0.359   0.365   0.396   0.398   0.408
 1986 320   142   352   266      0     58    834     0     0    84    0.00   0.0   0.0   0.00   0.217   0.254   0.302   0.356   0.363   0.394   0.397   0.407
 1986 321   143   350   264      0     58    834     0     0    84    0.00   0.0   0.0   0.00   0.208   0.250   0.300   0.355   0.362   0.393   0.395   0.406
 1986 322   144   346   261      0     58    834     0     0    84    0.00   0.0   0.0   0.00   0.193   0.244   0.296   0.352   0.359   0.391   0.393   0.404

*DSSAT Cropping System Model Ver. 4.6.1.000 -release      DEC 02, 2018; 12:33:07
                                                                                
*RUN   2        : 87_01                     RICER046 SSKT0001    2              
 MODEL          : RICER046 - Rice                                               
 EXPERIMENT     : SSKT0001 RI mulation, Thailand                                
 DATA PATH      : C:\DSSAT46\Rice\                                              
 TREATMENT  2   : 87_01                     RICER046                            
  
!                                                                                                 Soil water content (mm3/mm3) by soil depth (cm):
!                                                                                                 0-5    5-15   15-30   30-42   42-55   55-67   67-80  80-100
@YEAR DOY   DAS  SWTD  SWXD   ROFC   DRNC   PREC  IR#C  IRRC  DTWT    MWTD  TDFD  TDFC   ROFD    SW1D    SW2D    SW3D    SW4D    SW5D    SW6D    SW7D    SW8D    
 1987 178     0   228   142      0      0      0     0     0     0    0.00   0.0   0.0   0.00   0.200   0.200   0.200   0.200   0.200   0.200   0.282   0.286
 1987 179     1   223   138      0      0      1     0     0    50    0.00   0.0   0.0   0.00   0.185   0.191   0.194   0.196   0.197   0.198   0.279   0.283
 1987 180     2   218   133      0      0      1     0     0   100    0.00   0.0   0.0   0.00   0.163   0.182   0.189   0.192   0.194   0.195   0.276   0.281
 1987 181     3   235   150      0      0     23     0     0   100    0.00   0.0   0.0   0.00   0.336   0.292   0.184   0.189   0.191   0.193   0.273   0.278
 1987 182     4   231   146      0      0     23     0     0   100    0.00   0.0   0.0   0.00   0.307   0.283   0.180   0.186   0.189   0.191   0.271   0.276
 1987 183     5   228   142      0      0     23     0     0   100    0.00   0.0   0.0   0.00   0.287   0.276   0.178   0.184   0.187   0.190   0.269   0.275
 1987 184     6   275   189      0      0     73     0     0   100    0.00   0.0   0.0   0.00   0.353   0.364   0.352   0.261   0.186   0.189   0.268   0.274
 1987 185     7   277   192      0      0     78     0     0   100    0.00   0.0   0.0   0.00   0.353   0.364   0.351   0.288   0.185   0.189   0.267   0.273
 1987 186     8   288   203      0      0     92     0     0   100    0.00   0.0   0.0   0.00   0.353   0.363   0.351   0.384   0.184   0.188   0.266   0.272
 1987 187     9   283   198      0      0     92     0     0   100    0.00   0.0   0.0   0.00   0.325   0.353   0.345   0.380   0.182   0.186   0.264   0.270
 1987 188    10   277   192      0      0     92     0     0   100    0.00   0.0   0.0   0.00   0.293   0.339   0.337   0.374   0.180   0.185   0.262   0.268
 1987 189    11   282   197      0      0    102     0     0   100    0.00   0.0   0.0   0.00   0.343   0.359   0.349   0.371   0.178   0.183   0.260   0.266
 1987 190    12   277   192      0      0    103     0     0   100    0.00   0.0   0.0   0.00   0.322   0.347   0.342   0.366   0.176   0.182   0.258   0.265
 1987 191    13   272   187      0      0    103     0     0   100    0.00   0.0   0.0   0.00   0.296   0.336   0.335   0.361   0.174   0.181   0.256   0.263
 1987 192    14   276   190      0      0    110     0     0   100    0.00   0.0   0.0   0.00   0.345   0.360   0.334   0.357   0.173   0.179   0.254   0.262
 1987 193    15   272   187      0      0    113     0     0   100    0.00   0.0   0.0   0.00   0.336   0.357   0.328   0.352   0.171   0.178   0.252   0.260
 1987 194    16   265   179      0      0    113     0     0   100    0.00   0.0   0.0   0.00   0.294   0.340   0.319   0.345   0.168   0.176   0.250   0.257
 1987 195    17   260   174      0      0    113     0     0   100    0.00   0.0   0.0   0.00   0.268   0.328   0.312   0.340   0.166   0.174   0.248   0.256
 1987 196    18   254   169      0      0    113     0     0   100    0.00   0.0   0.0   0.00   0.240   0.315   0.305   0.334   0.164   0.173   0.246   0.254
 1987 197    19   249   164      0      0    114     0     0   100    0.00   0.0   0.0   0.00   0.233   0.301   0.297   0.328   0.162   0.171   0.243   0.251
 1987 198    20   243   157      0      0    114     0     0   100    0.00   0.0   0.0   0.00   0.206   0.287   0.288   0.321   0.159   0.169   0.240   0.249
 1987 199    21   257   172      0      0    134     0     0   100    0.00   0.0   0.0   0.00   0.338   0.356   0.305   0.316   0.157   0.167   0.238   0.247
 1987 200    22   254   169      0      0    135     0     0   100    0.00   0.0   0.0   0.00   0.326   0.348   0.301   0.312   0.156   0.166   0.237   0.246
 1987 201    23   247   162      0      0    135     0     0   100    0.00   0.0   0.0   0.00   0.287   0.332   0.293   0.307   0.154   0.165   0.235   0.244
 1987 202    24   241   155      0      0    135     0     0   100    0.00   0.0   0.0   0.00   0.251   0.316   0.285   0.300   0.151   0.163   0.232   0.241
 1987 203    25   270   184      0      0    171     0     0   100    0.00   0.0   0.0   0.00   0.330   0.353   0.346   0.397   0.165   0.161   0.230   0.239
 1987 204    26   269   183      0      0    174     0     0   100    0.00   0.0   0.0   0.00   0.348   0.351   0.341   0.393   0.164   0.160   0.228   0.238
 1987 205    27   262   177      0      0    174     0     0   100    0.00   0.0   0.0   0.00   0.311   0.337   0.333   0.386   0.161   0.159   0.226   0.236
 1987 206    28   255   170      0      0    174     0     0   100    0.00   0.0   0.0   0.00   0.272   0.321   0.323   0.378   0.159   0.157   0.224   0.234
 1987 207    29   248   163      0      0    174     0     0   100    0.00   0.0   0.0   0.00   0.238   0.305   0.314   0.371   0.156   0.155   0.222   0.232
 1987 208    30   242   156      0      0    174     0     0   100    0.00   0.0   0.0   0.00   0.208   0.291   0.305   0.363   0.154   0.153   0.219   0.230
 1987 209    31   240   154      0      0    178     0     0   100    0.00   0.0   0.0   0.00   0.266   0.277   0.296   0.356   0.152   0.152   0.217   0.228
 1987 210    32   245   159      0      0    188     0     0   100    0.00   0.0   0.0   0.00   0.342   0.311   0.291   0.351   0.150   0.151   0.215   0.226
 1987 211    33   244   159      0      0    193     0     0   100    0.00   0.0   0.0   0.00   0.333   0.339   0.284   0.345   0.148   0.149   0.213   0.224
 1987 212    34   242   156      0      0    194     0     0   100    0.00   0.0   0.0   0.00   0.331   0.330   0.280   0.341   0.147   0.148   0.212   0.223
 1987 213    35   264   179      0      0    223     0     0   100    0.00   0.0   0.0   0.00   0.333   0.356   0.348   0.398   0.176   0.147   0.210   0.222
 1987 214    36   261   175      0      0    223     0     0   100    0.00   0.0   0.0   0.00   0.309   0.348   0.343   0.394   0.175   0.146   0.209   0.221
 1987 215    37   252   167      0      0    223     0     0   100    0.00   0.0   0.0   0.00   0.251   0.328   0.333   0.386   0.172   0.145   0.207   0.219
 1987 216    38   245   160      0      0    223     0     0   100    0.00   0.0   0.0   0.00   0.211   0.312   0.324   0.379   0.169   0.143   0.205   0.217
 1987 217    39   237   152      0      0    223     0     0   100    0.00   0.0   0.0   0.00   0.164   0.293   0.315   0.371   0.167   0.142   0.203   0.215
 1987 218    40   236   151      0      0    228     0     0   100    0.00   0.0   0.0   0.00   0.223   0.280   0.307   0.365   0.165   0.140   0.201   0.213
 1987 219    41   228   143      0      0    228     0     0   100    0.00   0.0   0.0   0.00   0.173   0.262   0.298   0.357   0.162   0.139   0.199   0.211
 1987 220    42   221   136      0      0    228     0     0   100    0.00   0.0   0.0   0.00   0.132   0.245   0.289   0.350   0.160   0.137   0.197   0.209
 1987 221    43   217   132      0      0    228     0     0   100    0.00   0.0   0.0   0.00   0.116   0.236   0.283   0.345   0.158   0.136   0.196   0.208
 1987 222    44   213   127      0      0    228     0     0   100    0.00   0.0   0.0   0.00   0.101   0.225   0.276   0.339   0.156   0.135   0.194   0.206
 1987 223    45   207   121      0      0    228     0     0   100    0.00   0.0   0.0   0.00   0.086   0.208   0.266   0.332   0.153   0.134   0.192   0.204
 1987 224    46   203   118      0      0    230     0     0   100    0.00   0.0   0.0   0.00   0.121   0.189   0.256   0.325   0.151   0.132   0.190   0.203
 1987 225    47   196   111      0      0    230     0     0   100    0.00   0.0   0.0   0.00   0.080   0.173   0.247   0.317   0.149   0.131   0.188   0.201
 1987 226    48   192   106      0      0    230     0     0   100    0.00   0.0   0.0   0.00   0.079   0.156   0.240   0.312   0.147   0.130   0.186   0.199
 1987 227    49   317   232      0      0    358     0     0   100    0.00   0.0   0.0   0.00   0.359   0.362   0.351   0.401   0.402   0.383   0.186   0.198
 1987 228    50   383   298      0      0    427     0     0    92    0.00   0.0   0.0   0.00   0.353   0.364   0.352   0.402   0.402   0.429   0.429   0.343
 1987 229    51   381   296      0      0    428     0     0    92    0.00   0.0   0.0   0.00   0.349   0.359   0.349   0.399   0.401   0.427   0.428   0.342
 1987 230    52   378   292      0      0    428     0     0    93    0.00   0.0   0.0   0.00   0.328   0.352   0.346   0.397   0.399   0.426   0.426   0.341
 1987 231    53   370   284      0      0    428     0     0    93    0.00   0.0   0.0   0.00   0.282   0.336   0.338   0.390   0.394   0.422   0.423   0.339
 1987 232    54   364   279      0      0    428     0     0    93    0.00   0.0   0.0   0.00   0.251   0.324   0.332   0.385   0.390   0.419   0.421   0.337
 1987 233    55   376   290      0      0    442     0     0    93    0.00   0.0   0.0   0.00   0.354   0.364   0.352   0.385   0.389   0.418   0.420   0.336
 1987 234    56   401   316      0      0    475     0     0     3    0.00   0.0   0.0   0.00   0.354   0.364   0.352   0.402   0.402   0.429   0.429   0.433
 1987 235    57   403   317      0      2    475     0     0     3    0.00   0.0   0.0   0.00   0.357   0.366   0.354   0.403   0.403   0.430   0.430   0.434
 1987 236    58   401   316      0      2    498     0     0     3    0.00   0.0   0.0   0.00   0.351   0.363   0.352   0.401   0.402   0.428   0.429   0.433
 1987 237    59   403   317      0     12    498     0     0     3    0.00   0.0   0.0   0.00   0.357   0.366   0.354   0.403   0.403   0.430   0.430   0.434
 1987 238    60   402   317      0     19    502     0     0     3    0.00   0.0   0.0   0.00   0.352   0.365   0.353   0.402   0.403   0.429   0.430   0.434
 1987 239    61   395   310      0     19    502     0     0    12    0.00   0.0   0.0   0.00   0.311   0.350   0.347   0.397   0.399   0.426   0.427   0.432
 1987 240    62   387   302      0     19    502     0     0    65    0.00   0.0   0.0   0.00   0.268   0.334   0.339   0.390   0.394   0.422   0.424   0.429
 1987 241    63   380   295      0     19    502     0     0    79    0.00   0.0   0.0   0.00   0.231   0.319   0.332   0.385   0.389   0.418   0.421   0.427
 1987 242    64   374   288      0     19    502     0     0    81    0.00   0.0   0.0   0.00   0.198   0.305   0.326   0.379   0.385   0.414   0.418   0.425
 1987 243    65   369   284      0     19    502     0     0    81    0.00   0.0   0.0   0.00   0.176   0.295   0.321   0.375   0.382   0.412   0.415   0.423
 1987 244    66   378   293      0     19    515     0     0    82    0.00   0.0   0.0   0.00   0.346   0.324   0.317   0.371   0.379   0.409   0.413   0.422
 1987 245    67   374   289      0     19    516     0     0    82    0.00   0.0   0.0   0.00   0.338   0.313   0.312   0.367   0.376   0.406   0.411   0.420
 1987 246    68   373   287      0     19    519     0     0    82    0.00   0.0   0.0   0.00   0.345   0.312   0.309   0.364   0.374   0.404   0.409   0.419
 1987 247    69   371   285      0     19    522     0     0    82    0.00   0.0   0.0   0.00   0.337   0.322   0.304   0.360   0.370   0.401   0.407   0.417
 1987 248    70   401   315      0     19    594     0     0     4    0.00   0.0   0.0   0.00   0.351   0.363   0.352   0.401   0.402   0.428   0.428   0.433
 1987 249    71   403   318      0     29    597     0     0     4    0.00   0.0   0.0   0.00   0.362   0.367   0.354   0.403   0.404   0.429   0.430   0.434
 1987 250    72   402   317      0     39    603     0     0     4    0.00   0.0   0.0   0.00   0.356   0.365   0.354   0.403   0.403   0.429   0.429   0.434
 1987 251    73   401   316      0     49    635     0     0     4    0.00   0.0   0.0   0.00   0.350   0.363   0.353   0.402   0.403   0.429   0.429   0.434
 1987 252    74   403   317      0     59    684     0     0     4    0.00   0.0   0.0   0.00   0.361   0.367   0.354   0.403   0.403   0.429   0.430   0.434
 1987 253    75   403   318      0     69    709     0     0     4    0.00   0.0   0.0   0.00   0.362   0.367   0.354   0.403   0.404   0.430   0.430   0.434
 1987 254    76   402   316      0     79    709     0     0     4    0.00   0.0   0.0   0.00   0.354   0.364   0.354   0.403   0.403   0.429   0.429   0.434
 1987 255    77   402   316      0     89    709     0     0     4    0.00   0.0   0.0   0.00   0.351   0.363   0.353   0.402   0.403   0.429   0.429   0.434
 1987 256    78   402   316      0     99    709     0     0     4    0.00   0.0   0.0   0.00   0.353   0.363   0.354   0.403   0.403   0.429   0.429   0.434
 1987 257    79   401   316      0    109    709     0     0     4    0.00   0.0   0.0   0.00   0.350   0.362   0.353   0.402   0.403   0.429   0.429   0.434
 1987 258    80   402   316      0    119    723     0     0     4    0.00   0.0   0.0   0.00   0.353   0.363   0.353   0.403   0.403   0.429   0.429   0.434
 1987 259    81   402   316      0    129    727     0     0     4    0.00   0.0   0.0   0.00   0.352   0.363   0.353   0.403   0.403   0.429   0.429   0.434
 1987 260    82   403   318      0    134    752     0     0     4    0.00   0.0   0.0   0.00   0.362   0.367   0.354   0.403   0.404   0.429   0.430   0.434
 1987 261    83   403   317      0    144    752     0     0     4    0.00   0.0   0.0   0.00   0.361   0.366   0.354   0.403   0.404   0.429   0.430   0.434
 1987 262    84   403   318      0    151    754     0     0     4    0.00   0.0   0.0   0.00   0.363   0.367   0.354   0.403   0.404   0.430   0.430   0.434
 1987 263    85   400   315      0    151    754     0     0     4    0.00   0.0   0.0   0.00   0.351   0.362   0.351   0.401   0.402   0.428   0.428   0.433
 1987 264    86   399   313      0    151    809     0     0     9    0.00   0.0   0.0   0.00   0.341   0.358   0.350   0.400   0.401   0.427   0.427   0.432
 1987 265    87   403   317      0    161    813     0     0     9    0.00   0.0   0.0   0.00   0.360   0.366   0.354   0.403   0.403   0.429   0.429   0.434
 1987 266    88   403   318      0    171    814     0     0     9    0.00   0.0   0.0   0.00   0.363   0.367   0.354   0.403   0.404   0.430   0.430   0.434
 1987 267    89   402   317      0    181    814     0     0     9    0.00   0.0   0.0   0.00   0.357   0.365   0.354   0.403   0.403   0.429   0.429   0.434
 1987 268    90   402   317      0    188    814     0     0     9    0.00   0.0   0.0   0.00   0.356   0.364   0.354   0.403   0.403   0.429   0.429   0.434
 1987 269    91   402   316      0    188    817     0     0     3    0.00   0.0   0.0   0.00   0.356   0.365   0.353   0.402   0.402   0.429   0.429   0.433
 1987 270    92   399   314      0    188    817     0     0     3    0.00   0.0   0.0   0.00   0.346   0.360   0.351   0.399   0.400   0.426   0.427   0.432
 1987 271    93   394   308      0    188    817     0     0    12    0.00   0.0   0.0   0.00   0.319   0.350   0.346   0.395   0.397   0.423   0.424   0.430
 1987 272    94   388   302      0    188    817     0     0    79    0.00   0.0   0.0   0.00   0.289   0.337   0.340   0.390   0.393   0.420   0.421   0.427
 1987 273    95   382   296      0    188    817     0     0    81    0.00   0.0   0.0   0.00   0.260   0.324   0.335   0.386   0.389   0.416   0.418   0.425
 1987 274    96   376   290      0    188    817     0     0    82    0.00   0.0   0.0   0.00   0.231   0.311   0.329   0.380   0.385   0.412   0.415   0.422
 1987 275    97   382   296      0    188    827     0     0    82    0.00   0.0   0.0   0.00   0.350   0.334   0.325   0.377   0.383   0.410   0.413   0.421
 1987 276    98   383   297      0    188    834     0     0    82    0.00   0.0   0.0   0.00   0.340   0.358   0.332   0.373   0.379   0.407   0.410   0.419
 1987 277    99   382   297      0    188    838     0     0    82    0.00   0.0   0.0   0.00   0.345   0.360   0.340   0.370   0.377   0.404   0.408   0.417
 1987 278   100   398   313      0    188    862     0     0    10    0.00   0.0   0.0   0.00   0.338   0.357   0.349   0.399   0.400   0.427   0.427   0.432
 1987 279   101   398   313      0    188    862     0     0    10    0.00   0.0   0.0   0.00   0.355   0.362   0.347   0.398   0.399   0.425   0.426   0.431
 1987 280   102   401   316      0    188    891     0     0     3    0.00   0.0   0.0   0.00   0.354   0.364   0.352   0.402   0.402   0.428   0.429   0.433
 1987 281   103   403   318      0    198    892     0     0     3    0.00   0.0   0.0   0.00   0.363   0.367   0.354   0.403   0.404   0.429   0.430   0.434
 1987 282   104   403   318      0    204    892     0     0     3    0.00   0.0   0.0   0.00   0.362   0.367   0.354   0.403   0.404   0.429   0.429   0.434
 1987 283   105   397   311      0    204    892     0     0    11    0.00   0.0   0.0   0.00   0.329   0.353   0.348   0.398   0.400   0.426   0.426   0.431
 1987 284   106   392   306      0    204    892     0     0    14    0.00   0.0   0.0   0.00   0.306   0.343   0.344   0.395   0.397   0.423   0.424   0.429
 1987 285   107   387   302      0    204    892     0     0    79    0.00   0.0   0.0   0.00   0.282   0.333   0.339   0.391   0.393   0.420   0.421   0.427
 1987 286   108   382   296      0    204    892     0     0    81    0.00   0.0   0.0   0.00   0.258   0.322   0.334   0.387   0.390   0.417   0.418   0.425
 1987 287   109   382   296      0    204    895     0     0    81    0.00   0.0   0.0   0.00   0.302   0.316   0.331   0.384   0.388   0.415   0.417   0.424
 1987 288   110   375   290      0    204    895     0     0    82    0.00   0.0   0.0   0.00   0.272   0.304   0.325   0.379   0.384   0.411   0.413   0.421
 1987 289   111   370   285      0    204    896     0     0    82    0.00   0.0   0.0   0.00   0.252   0.293   0.320   0.374   0.380   0.407   0.410   0.419
 1987 290   112   364   279      0    204    896     0     0    82    0.00   0.0   0.0   0.00   0.227   0.281   0.314   0.369   0.376   0.404   0.407   0.416
 1987 291   113   360   275      0    204    896     0     0    83    0.00   0.0   0.0   0.00   0.211   0.274   0.310   0.366   0.373   0.401   0.405   0.414
 1987 292   114   364   279      0    204    905     0     0    83    0.00   0.0   0.0   0.00   0.346   0.275   0.305   0.361   0.369   0.398   0.402   0.411
 1987 293   115   358   273      0    204    905     0     0    83    0.00   0.0   0.0   0.00   0.316   0.265   0.299   0.357   0.366   0.394   0.399   0.409
 1987 294   116   353   268      0    204    905     0     0    84    0.00   0.0   0.0   0.00   0.287   0.256   0.294   0.352   0.362   0.391   0.396   0.406
 1987 295   117   350   264      0    204    905     0     0    84    0.00   0.0   0.0   0.00   0.281   0.249   0.290   0.349   0.359   0.388   0.393   0.404
 1987 296   118   345   260      0    204    905     0     0    84    0.00   0.0   0.0   0.00   0.260   0.241   0.285   0.345   0.356   0.385   0.391   0.402
 1987 297   119   341   255      0    204    905     0     0    85    0.00   0.0   0.0   0.00   0.240   0.234   0.281   0.341   0.352   0.382   0.388   0.400
 1987 298   120   336   250      0    204    905     0     0    85    0.00   0.0   0.0   0.00   0.219   0.226   0.276   0.337   0.349   0.379   0.385   0.398
 1987 299   121   331   246      0    204    905     0     0    85    0.00   0.0   0.0   0.00   0.201   0.218   0.272   0.333   0.346   0.376   0.383   0.395
 1987 300   122   327   242      0    204    905     0     0    86    0.00   0.0   0.0   0.00   0.184   0.211   0.267   0.329   0.342   0.373   0.380   0.393
 1987 301   123   323   237      0    204    905     0     0    86    0.00   0.0   0.0   0.00   0.167   0.204   0.262   0.325   0.339   0.370   0.377   0.391
 1987 302   124   318   233      0    204    905     0     0    86    0.00   0.0   0.0   0.00   0.152   0.197   0.258   0.320   0.335   0.367   0.374   0.388
 1987 303   125   314   228      0    204    905     0     0    87    0.00   0.0   0.0   0.00   0.137   0.189   0.253   0.316   0.331   0.363   0.371   0.385
 1987 304   126   356   271      0    204    951     0     0    87    0.00   0.0   0.0   0.00   0.355   0.363   0.351   0.321   0.329   0.361   0.369   0.384
 1987 305   127   382   296      0    204    981     0     0    87    0.00   0.0   0.0   0.00   0.351   0.363   0.351   0.401   0.402   0.422   0.368   0.382
 1987 306   128   383   297      0    204    985     0     0    87    0.00   0.0   0.0   0.00   0.353   0.363   0.352   0.401   0.402   0.428   0.370   0.381
 1987 307   129   379   294      0    204    985     0     0    87    0.00   0.0   0.0   0.00   0.336   0.356   0.348   0.398   0.399   0.426   0.368   0.380
 1987 308   130   375   290      0    204    985     0     0    88    0.00   0.0   0.0   0.00   0.317   0.348   0.344   0.395   0.397   0.424   0.366   0.378
 1987 309   131   372   286      0    204    985     0     0    88    0.00   0.0   0.0   0.00   0.298   0.341   0.340   0.392   0.394   0.421   0.364   0.377
 1987 310   132   369   283      0    204    985     0     0    88    0.00   0.0   0.0   0.00   0.285   0.335   0.337   0.389   0.392   0.419   0.363   0.375
 1987 311   133   366   281      0    204    986     0     0    88    0.00   0.0   0.0   0.00   0.290   0.327   0.334   0.386   0.389   0.417   0.361   0.374
 1987 312   134   364   278      0    204    986     0     0    88    0.00   0.0   0.0   0.00   0.280   0.323   0.331   0.384   0.388   0.415   0.360   0.373
 1987 313   135   360   275      0    204    986     0     0    88    0.00   0.0   0.0   0.00   0.264   0.316   0.327   0.381   0.385   0.413   0.358   0.371
 1987 314   136   358   273      0    204    986     0     0    89    0.00   0.0   0.0   0.00   0.256   0.312   0.326   0.379   0.384   0.412   0.357   0.371
 1987 315   137   354   269      0    204    986     0     0    89    0.00   0.0   0.0   0.00   0.240   0.304   0.321   0.376   0.381   0.409   0.355   0.369
 1987 316   138   351   266      0    204    986     0     0    89    0.00   0.0   0.0   0.00   0.234   0.298   0.318   0.373   0.379   0.407   0.354   0.368
 1987 317   139   379   293      0    204   1017     0     0    89    0.00   0.0   0.0   0.00   0.353   0.363   0.351   0.401   0.401   0.428   0.363   0.366
 1987 318   140   376   290      0    204   1017     0     0    89    0.00   0.0   0.0   0.00   0.338   0.356   0.348   0.398   0.399   0.426   0.361   0.365
 1987 319   141   372   286      0    204   1017     0     0    90    0.00   0.0   0.0   0.00   0.318   0.349   0.344   0.395   0.397   0.423   0.359   0.363
 1987 320   142   368   283      0    204   1017     0     0    90    0.00   0.0   0.0   0.00   0.301   0.341   0.340   0.392   0.394   0.421   0.358   0.362
 1987 321   143   365   279      0    204   1017     0     0    90    0.00   0.0   0.0   0.00   0.286   0.335   0.337   0.389   0.392   0.419   0.356   0.361

*DSSAT Cropping System Model Ver. 4.6.1.000 -release      DEC 02, 2018; 12:33:07
                                                                                
*RUN   3        : 88_01                     RICER046 SSKT0001    3              
 MODEL          : RICER046 - Rice                                               
 EXPERIMENT     : SSKT0001 RI mulation, Thailand                                
 DATA PATH      : C:\DSSAT46\Rice\                                              
 TREATMENT  3   : 88_01                     RICER046                            
  
!                                                                                                 Soil water content (mm3/mm3) by soil depth (cm):
!                                                                                                 0-5    5-15   15-30   30-42   42-55   55-67   67-80  80-100
@YEAR DOY   DAS  SWTD  SWXD   ROFC   DRNC   PREC  IR#C  IRRC  DTWT    MWTD  TDFD  TDFC   ROFD    SW1D    SW2D    SW3D    SW4D    SW5D    SW6D    SW7D    SW8D    
 1988 178     0   228   142      0      0      0     0     0     0    0.00   0.0   0.0   0.00   0.200   0.200   0.200   0.200   0.200   0.200   0.282   0.286
 1988 179     1   227   141      0      0      4     0     0    50    0.00   0.0   0.0   0.00   0.258   0.191   0.194   0.196   0.197   0.198   0.279   0.283
 1988 180     2   249   163      0      0     32     0     0   100    0.00   0.0   0.0   0.00   0.330   0.357   0.218   0.192   0.194   0.195   0.276   0.281
 1988 181     3   246   160      0      0     35     0     0   100    0.00   0.0   0.0   0.00   0.333   0.349   0.213   0.189   0.191   0.193   0.273   0.278
 1988 182     4   240   154      0      0     35     0     0   100    0.00   0.0   0.0   0.00   0.295   0.334   0.208   0.186   0.189   0.191   0.271   0.276
 1988 183     5   233   148      0      0     35     0     0   100    0.00   0.0   0.0   0.00   0.258   0.317   0.202   0.182   0.186   0.189   0.268   0.273
 1988 184     6   227   142      0      0     35     0     0   100    0.00   0.0   0.0   0.00   0.225   0.302   0.196   0.179   0.183   0.187   0.265   0.271
 1988 185     7   224   139      0      0     35     0     0   100    0.00   0.0   0.0   0.00   0.210   0.294   0.193   0.177   0.181   0.186   0.263   0.269
 1988 186     8   219   134      0      0     36     0     0   100    0.00   0.0   0.0   0.00   0.197   0.280   0.188   0.173   0.178   0.184   0.260   0.267
 1988 187     9   216   131      0      0     38     0     0   100    0.00   0.0   0.0   0.00   0.220   0.267   0.183   0.170   0.175   0.181   0.257   0.264
 1988 188    10   211   126      0      0     38     0     0   100    0.00   0.0   0.0   0.00   0.193   0.254   0.177   0.167   0.173   0.179   0.254   0.262
 1988 189    11   206   121      0      0     38     0     0   100    0.00   0.0   0.0   0.00   0.169   0.242   0.172   0.164   0.170   0.177   0.252   0.259
 1988 190    12   201   116      0      0     38     0     0   100    0.00   0.0   0.0   0.00   0.149   0.231   0.168   0.160   0.167   0.175   0.249   0.257
 1988 191    13   197   112      0      0     38     0     0   100    0.00   0.0   0.0   0.00   0.132   0.220   0.163   0.157   0.165   0.173   0.246   0.254
 1988 192    14   193   107      0      0     38     0     0   100    0.00   0.0   0.0   0.00   0.117   0.210   0.158   0.154   0.162   0.171   0.244   0.252
 1988 193    15   189   103      0      0     38     0     0   100    0.00   0.0   0.0   0.00   0.104   0.200   0.154   0.151   0.160   0.169   0.241   0.249
 1988 194    16   187   101      0      0     40     0     0   100    0.00   0.0   0.0   0.00   0.126   0.191   0.150   0.149   0.157   0.167   0.238   0.247
 1988 195    17   184    99      0      0     41     0     0   100    0.00   0.0   0.0   0.00   0.136   0.182   0.146   0.146   0.155   0.166   0.236   0.245
 1988 196    18   183    98      0      0     45     0     0   100    0.00   0.0   0.0   0.00   0.184   0.174   0.142   0.143   0.152   0.164   0.233   0.242
 1988 197    19   189   103      0      0     55     0     0   100    0.00   0.0   0.0   0.00   0.336   0.172   0.138   0.140   0.150   0.162   0.231   0.240
 1988 198    20   214   129      0      0     84     0     0   100    0.00   0.0   0.0   0.00   0.338   0.361   0.188   0.138   0.148   0.161   0.229   0.239
 1988 199    21   251   165      0      0    127     0     0   100    0.00   0.0   0.0   0.00   0.330   0.354   0.348   0.264   0.146   0.159   0.227   0.237
 1988 200    22   245   159      0      0    127     0     0   100    0.00   0.0   0.0   0.00   0.297   0.340   0.340   0.259   0.144   0.158   0.225   0.235
 1988 201    23   238   153      0      0    127     0     0   100    0.00   0.0   0.0   0.00   0.259   0.323   0.330   0.254   0.142   0.156   0.222   0.233
 1988 202    24   232   147      0      0    127     0     0   100    0.00   0.0   0.0   0.00   0.230   0.309   0.322   0.250   0.140   0.154   0.220   0.231
 1988 203    25   229   143      0      0    130     0     0   100    0.00   0.0   0.0   0.00   0.244   0.296   0.313   0.245   0.138   0.153   0.218   0.229
 1988 204    26   223   137      0      0    130     0     0   100    0.00   0.0   0.0   0.00   0.214   0.282   0.305   0.240   0.136   0.151   0.216   0.227
 1988 205    27   217   132      0      0    130     0     0   100    0.00   0.0   0.0   0.00   0.187   0.268   0.296   0.236   0.134   0.149   0.214   0.225
 1988 206    28   212   126      0      0    130     0     0   100    0.00   0.0   0.0   0.00   0.165   0.256   0.287   0.231   0.132   0.148   0.211   0.223
 1988 207    29   206   121      0      0    130     0     0   100    0.00   0.0   0.0   0.00   0.145   0.244   0.279   0.226   0.130   0.146   0.209   0.220
 1988 208    30   206   121      0      0    134     0     0   100    0.00   0.0   0.0   0.00   0.213   0.233   0.272   0.222   0.128   0.145   0.207   0.219
 1988 209    31   201   115      0      0    134     0     0   100    0.00   0.0   0.0   0.00   0.187   0.222   0.264   0.218   0.126   0.143   0.205   0.217
 1988 210    32   196   111      0      0    134     0     0   100    0.00   0.0   0.0   0.00   0.165   0.211   0.256   0.214   0.124   0.142   0.203   0.215
 1988 211    33   203   118      0      0    146     0     0   100    0.00   0.0   0.0   0.00   0.336   0.222   0.249   0.209   0.123   0.140   0.201   0.213
 1988 212    34   197   112      0      0    146     0     0   100    0.00   0.0   0.0   0.00   0.293   0.212   0.242   0.205   0.121   0.139   0.199   0.211
 1988 213    35   194   108      0      0    147     0     0   100    0.00   0.0   0.0   0.00   0.282   0.204   0.237   0.202   0.119   0.137   0.197   0.209
 1988 214    36   206   120      0      0    162     0     0   100    0.00   0.0   0.0   0.00   0.347   0.303   0.234   0.200   0.119   0.137   0.196   0.208
 1988 215    37   204   119      0      0    163     0     0   100    0.00   0.0   0.0   0.00   0.347   0.297   0.231   0.199   0.118   0.136   0.195   0.208
 1988 216    38   201   116      0      0    164     0     0   100    0.00   0.0   0.0   0.00   0.333   0.289   0.228   0.197   0.117   0.135   0.194   0.207
 1988 217    39   194   109      0      0    164     0     0   100    0.00   0.0   0.0   0.00   0.270   0.272   0.221   0.193   0.115   0.134   0.192   0.205
 1988 218    40   188   103      0      0    164     0     0   100    0.00   0.0   0.0   0.00   0.226   0.257   0.215   0.189   0.113   0.133   0.190   0.203
 1988 219    41   185    99      0      0    165     0     0   100    0.00   0.0   0.0   0.00   0.223   0.246   0.210   0.186   0.112   0.131   0.189   0.201
 1988 220    42   184    99      0      0    172     0     0   100    0.00   0.0   0.0   0.00   0.294   0.231   0.204   0.183   0.110   0.130   0.187   0.200
 1988 221    43   182    96      0      0    175     0     0   100    0.00   0.0   0.0   0.00   0.307   0.219   0.198   0.179   0.109   0.129   0.185   0.198
 1988 222    44   196   111      0      0    193     0     0   100    0.00   0.0   0.0   0.00   0.338   0.360   0.194   0.177   0.108   0.128   0.184   0.197
 1988 223    45   193   107      0      0    194     0     0   100    0.00   0.0   0.0   0.00   0.325   0.347   0.190   0.175   0.107   0.127   0.183   0.196
 1988 224    46   188   103      0      0    194     0     0   100    0.00   0.0   0.0   0.00   0.296   0.335   0.187   0.172   0.106   0.126   0.181   0.194
 1988 225    47   185    99      0      0    195     0     0   100    0.00   0.0   0.0   0.00   0.270   0.324   0.183   0.170   0.105   0.126   0.180   0.193
 1988 226    48   195   109      0      0    211     0     0   100    0.00   0.0   0.0   0.00   0.318   0.351   0.224   0.167   0.103   0.124   0.178   0.192
 1988 227    49   190   104      0      0    211     0     0   100    0.00   0.0   0.0   0.00   0.280   0.338   0.219   0.164   0.102   0.123   0.177   0.191
 1988 228    50   183    98      0      0    211     0     0   100    0.00   0.0   0.0   0.00   0.230   0.319   0.212   0.161   0.101   0.122   0.175   0.189
 1988 229    51   177    91      0      0    211     0     0   100    0.00   0.0   0.0   0.00   0.187   0.302   0.206   0.157   0.099   0.121   0.174   0.187
 1988 230    52   171    85      0      0    211     0     0   100    0.00   0.0   0.0   0.00   0.147   0.284   0.199   0.154   0.097   0.120   0.172   0.186
 1988 231    53   165    80      0      0    213     0     0   100    0.00   0.0   0.0   0.00   0.128   0.266   0.192   0.149   0.096   0.119   0.170   0.184
 1988 232    54   161    75      0      0    213     0     0   100    0.00   0.0   0.0   0.00   0.098   0.252   0.186   0.146   0.094   0.118   0.169   0.183
 1988 233    55   157    72      0      0    213     0     0   100    0.00   0.0   0.0   0.00   0.089   0.239   0.181   0.143   0.093   0.117   0.168   0.182
 1988 234    56   151    65      0      0    213     0     0   100    0.00   0.0   0.0   0.00   0.077   0.216   0.172   0.136   0.090   0.116   0.166   0.180
 1988 235    57   145    60      0      0    213     0     0   100    0.00   0.0   0.0   0.00   0.075   0.193   0.162   0.127   0.088   0.115   0.165   0.179
 1988 236    58   140    55      0      0    213     0     0   100    0.00   0.0   0.0   0.00   0.074   0.174   0.154   0.120   0.086   0.114   0.164   0.177
 1988 237    59   153    68      0      0    232     0     0   100    0.00   0.0   0.0   0.00   0.344   0.198   0.146   0.113   0.084   0.113   0.162   0.176
 1988 238    60   150    65      0      0    233     0     0   100    0.00   0.0   0.0   0.00   0.326   0.190   0.142   0.110   0.084   0.113   0.161   0.175
 1988 239    61   143    58      0      0    233     0     0   100    0.00   0.0   0.0   0.00   0.262   0.175   0.136   0.106   0.082   0.112   0.160   0.173
 1988 240    62   137    52      0      0    233     0     0   100    0.00   0.0   0.0   0.00   0.207   0.162   0.130   0.101   0.081   0.111   0.158   0.172
 1988 241    63   133    48      0      0    233     0     0   100    0.00   0.0   0.0   0.00   0.177   0.154   0.127   0.099   0.080   0.110   0.157   0.171
 1988 242    64   127    41      0      0    233     0     0   100    0.00   0.0   0.0   0.00   0.122   0.138   0.120   0.093   0.079   0.109   0.156   0.170
 1988 243    65   121    36      0      0    233     0     0   100    0.00   0.0   0.0   0.00   0.082   0.125   0.114   0.090   0.077   0.108   0.154   0.168
 1988 244    66   118    32      0      0    233     0     0   100    0.00   0.0   0.0   0.00   0.081   0.110   0.108   0.087   0.076   0.107   0.153   0.167
 1988 245    67   115    30      0      0    237     0     0   100    0.00   0.0   0.0   0.00   0.145   0.094   0.090   0.080   0.074   0.106   0.152   0.165
 1988 246    68   110    25      0      0    237     0     0   100    0.00   0.0   0.0   0.00   0.073   0.093   0.083   0.079   0.074   0.106   0.152   0.165
 1988 247    69   107    21      0      0    237     0     0   100    0.00   0.0   0.0   0.00   0.069   0.090   0.067   0.077   0.073   0.106   0.152   0.165
 1988 248    70   105    20      0      0    237     0     0   100    0.00   0.0   0.0   0.00   0.065   0.088   0.060   0.075   0.072   0.106   0.151   0.165
 1988 249    71   104    18      0      0    237     0     0   100    0.00   0.0   0.0   0.00   0.061   0.087   0.057   0.073   0.071   0.106   0.151   0.165
 1988 250    72   103    17      0      0    237     0     0   100    0.00   0.0   0.0   0.00   0.058   0.085   0.055   0.072   0.070   0.106   0.151   0.165
 1988 251    73   102    17      0      0    237     0     0   100    0.00   0.0   0.0   0.00   0.054   0.084   0.053   0.071   0.070   0.106   0.151   0.165
 1988 252    74   116    31      0      0    255     0     0   100    0.00   0.0   0.0   0.00   0.344   0.097   0.050   0.068   0.068   0.105   0.150   0.164
 1988 253    75   111    25      0      0    255     0     0   100    0.00   0.0   0.0   0.00   0.261   0.092   0.049   0.067   0.067   0.104   0.149   0.163
 1988 254    76   106    21      0      0    255     0     0   100    0.00   0.0   0.0   0.00   0.204   0.089   0.047   0.066   0.066   0.103   0.147   0.161
 1988 255    77   102    16      0      0    255     0     0   100    0.00   0.0   0.0   0.00   0.139   0.085   0.046   0.065   0.065   0.102   0.146   0.160
 1988 256    78    98    13      0      0    255     0     0   100    0.00   0.0   0.0   0.00   0.073   0.084   0.046   0.064   0.065   0.102   0.146   0.160
 1988 257    79   100    14      0      0    257     0     0   100    0.00   0.0   0.0   0.00   0.111   0.082   0.045   0.064   0.064   0.102   0.146   0.160
 1988 258    80   133    48      0      0    296     0     0   100    0.00   0.0   0.0   0.00   0.300   0.332   0.043   0.062   0.063   0.101   0.145   0.159
 1988 259    81   138    52      0      0    305     0     0   100    0.00   0.0   0.0   0.00   0.331   0.355   0.051   0.062   0.063   0.101   0.144   0.158
 1988 260    82   136    51      0      0    309     0     0   100    0.00   0.0   0.0   0.00   0.311   0.347   0.057   0.061   0.062   0.100   0.143   0.157
 1988 261    83   149    63      0      0    328     0     0   100    0.00   0.0   0.0   0.00   0.315   0.349   0.142   0.060   0.061   0.099   0.142   0.156
 1988 262    84   176    91      0      0    360     0     0   100    0.00   0.0   0.0   0.00   0.325   0.353   0.321   0.060   0.061   0.099   0.141   0.155
 1988 263    85   171    86      0      0    360     0     0   100    0.00   0.0   0.0   0.00   0.286   0.337   0.314   0.059   0.060   0.098   0.140   0.154
 1988 264    86   165    80      0      0    360     0     0   100    0.00   0.0   0.0   0.00   0.244   0.319   0.305   0.058   0.060   0.098   0.139   0.154
 1988 265    87   160    75      0      0    360     0     0   100    0.00   0.0   0.0   0.00   0.208   0.303   0.297   0.058   0.059   0.097   0.139   0.153
 1988 266    88   154    69      0      0    360     0     0   100    0.00   0.0   0.0   0.00   0.170   0.285   0.288   0.057   0.059   0.097   0.138   0.152
 1988 267    89   149    63      0      0    360     0     0   100    0.00   0.0   0.0   0.00   0.134   0.266   0.278   0.056   0.058   0.096   0.136   0.151
 1988 268    90   143    58      0      0    360     0     0   100    0.00   0.0   0.0   0.00   0.104   0.248   0.269   0.055   0.057   0.095   0.135   0.149
 1988 269    91   139    54      0      0    360     0     0   100    0.00   0.0   0.0   0.00   0.091   0.230   0.260   0.055   0.057   0.094   0.134   0.148
 1988 270    92   134    49      0      0    360     0     0   100    0.00   0.0   0.0   0.00   0.081   0.212   0.250   0.054   0.056   0.094   0.133   0.147
 1988 271    93   131    45      0      0    360     0     0   100    0.00   0.0   0.0   0.00   0.080   0.193   0.241   0.053   0.056   0.093   0.132   0.146
 1988 272    94   135    50      0      0    370     0     0   100    0.00   0.0   0.0   0.00   0.259   0.174   0.230   0.053   0.055   0.092   0.131   0.145
 1988 273    95   141    55      0      0    379     0     0   100    0.00   0.0   0.0   0.00   0.342   0.196   0.226   0.052   0.055   0.092   0.130   0.144
 1988 274    96   136    50      0      0    379     0     0   100    0.00   0.0   0.0   0.00   0.294   0.183   0.219   0.052   0.054   0.091   0.130   0.144
 1988 275    97   132    47      0      0    379     0     0   100    0.00   0.0   0.0   0.00   0.266   0.176   0.214   0.051   0.054   0.091   0.129   0.143
 1988 276    98   127    42      0      0    379     0     0   100    0.00   0.0   0.0   0.00   0.224   0.163   0.207   0.051   0.053   0.090   0.128   0.142
 1988 277    99   122    36      0      0    379     0     0   100    0.00   0.0   0.0   0.00   0.176   0.148   0.198   0.050   0.052   0.090   0.127   0.141
 1988 278   100   156    70      0      0    415     0     0   100    0.00   0.0   0.0   0.00   0.352   0.363   0.224   0.050   0.052   0.089   0.126   0.140
 1988 279   101   172    86      0      0    434     0     0   100    0.00   0.0   0.0   0.00   0.351   0.363   0.334   0.049   0.052   0.089   0.126   0.140
 1988 280   102   169    84      0      0    434     0     0   100    0.00   0.0   0.0   0.00   0.332   0.355   0.330   0.049   0.052   0.089   0.126   0.140
 1988 281   103   166    81      0      0    435     0     0   100    0.00   0.0   0.0   0.00   0.329   0.341   0.324   0.049   0.051   0.088   0.125   0.139
 1988 282   104   192   107      0      0    466     0     0   100    0.00   0.0   0.0   0.00   0.334   0.356   0.348   0.219   0.051   0.088   0.125   0.139
 1988 283   105   190   105      0      0    466     0     0   100    0.00   0.0   0.0   0.00   0.323   0.350   0.345   0.217   0.051   0.088   0.124   0.138
 1988 284   106   190   105      0      0    469     0     0   100    0.00   0.0   0.0   0.00   0.352   0.350   0.341   0.215   0.051   0.088   0.124   0.138
 1988 285   107   209   124      0      0    490     0     0   100    0.00   0.0   0.0   0.00   0.356   0.365   0.352   0.345   0.051   0.088   0.124   0.138
 1988 286   108   209   124      0      0    492     0     0   100    0.00   0.0   0.0   0.00   0.356   0.364   0.352   0.346   0.051   0.087   0.124   0.138
 1988 287   109   206   120      0      0    492     0     0   100    0.00   0.0   0.0   0.00   0.332   0.355   0.347   0.342   0.050   0.087   0.123   0.137
 1988 288   110   216   131      0      0    506     0     0   100    0.00   0.0   0.0   0.00   0.345   0.360   0.350   0.400   0.065   0.087   0.123   0.137
 1988 289   111   218   132      0      0    511     0     0   100    0.00   0.0   0.0   0.00   0.345   0.360   0.350   0.400   0.081   0.087   0.122   0.136
 1988 290   112   227   141      0      0    522     0     0   100    0.00   0.0   0.0   0.00   0.356   0.364   0.352   0.402   0.137   0.086   0.122   0.136
 1988 291   113   233   147      0      0    533     0     0   100    0.00   0.0   0.0   0.00   0.340   0.358   0.349   0.399   0.203   0.086   0.122   0.136
 1988 292   114   228   143      0      0    534     0     0   100    0.00   0.0   0.0   0.00   0.322   0.345   0.342   0.393   0.200   0.086   0.121   0.135
 1988 293   115   223   138      0      0    534     0     0   100    0.00   0.0   0.0   0.00   0.292   0.333   0.335   0.387   0.197   0.085   0.120   0.134
 1988 294   116   218   132      0      0    534     0     0   100    0.00   0.0   0.0   0.00   0.261   0.319   0.328   0.380   0.194   0.085   0.120   0.134
 1988 295   117   213   127      0      0    534     0     0   100    0.00   0.0   0.0   0.00   0.234   0.307   0.321   0.375   0.191   0.084   0.119   0.133
 1988 296   118   209   124      0      0    534     0     0   100    0.00   0.0   0.0   0.00   0.215   0.298   0.316   0.370   0.189   0.084   0.119   0.133
 1988 297   119   206   121      0      0    534     0     0   100    0.00   0.0   0.0   0.00   0.203   0.291   0.312   0.367   0.187   0.084   0.118   0.132
 1988 298   120   226   140      0      0    556     0     0   100    0.00   0.0   0.0   0.00   0.355   0.363   0.346   0.364   0.186   0.084   0.118   0.132
 1988 299   121   248   162      0      0    581     0     0   100    0.00   0.0   0.0   0.00   0.346   0.361   0.350   0.400   0.323   0.083   0.117   0.131
 1988 300   122   243   158      0      0    581     0     0   100    0.00   0.0   0.0   0.00   0.322   0.351   0.345   0.396   0.320   0.083   0.117   0.131
 1988 301   123   239   154      0      0    581     0     0   100    0.00   0.0   0.0   0.00   0.298   0.341   0.339   0.391   0.317   0.083   0.117   0.130
 1988 302   124   235   150      0      0    581     0     0   100    0.00   0.0   0.0   0.00   0.275   0.331   0.334   0.386   0.314   0.082   0.116   0.130
 1988 303   125   232   147      0      0    581     0     0   100    0.00   0.0   0.0   0.00   0.261   0.324   0.330   0.383   0.312   0.082   0.116   0.130
 1988 304   126   230   145      0      0    581     0     0   100    0.00   0.0   0.0   0.00   0.249   0.319   0.327   0.380   0.310   0.082   0.115   0.129
 1988 305   127   227   141      0      0    581     0     0   100    0.00   0.0   0.0   0.00   0.233   0.311   0.323   0.377   0.307   0.082   0.115   0.129
 1988 306   128   223   138      0      0    581     0     0   100    0.00   0.0   0.0   0.00   0.215   0.302   0.318   0.372   0.304   0.081   0.115   0.128
 1988 307   129   220   134      0      0    581     0     0   100    0.00   0.0   0.0   0.00   0.199   0.294   0.313   0.368   0.302   0.081   0.114   0.128
 1988 308   130   216   131      0      0    581     0     0   100    0.00   0.0   0.0   0.00   0.183   0.285   0.308   0.363   0.298   0.081   0.114   0.127
 1988 309   131   212   127      0      0    581     0     0   100    0.00   0.0   0.0   0.00   0.167   0.276   0.302   0.359   0.295   0.080   0.113   0.127
 1988 310   132   209   124      0      0    581     0     0   100    0.00   0.0   0.0   0.00   0.153   0.268   0.297   0.354   0.292   0.080   0.112   0.126
 1988 311   133   207   121      0      0    581     0     0   100    0.00   0.0   0.0   0.00   0.144   0.262   0.293   0.351   0.290   0.080   0.112   0.126
 1988 312   134   205   120      0      0    581     0     0   100    0.00   0.0   0.0   0.00   0.139   0.259   0.292   0.349   0.289   0.080   0.112   0.126
 1988 313   135   203   118      0      0    581     0     0   100    0.00   0.0   0.0   0.00   0.132   0.254   0.289   0.347   0.287   0.080   0.112   0.125
 1988 314   136   200   115      0      0    581     0     0   100    0.00   0.0   0.0   0.00   0.120   0.246   0.284   0.342   0.284   0.079   0.111   0.125
 1988 315   137   197   111      0      0    581     0     0   100    0.00   0.0   0.0   0.00   0.110   0.238   0.279   0.338   0.281   0.079   0.111   0.124
 1988 316   138   194   108      0      0    581     0     0   100    0.00   0.0   0.0   0.00   0.102   0.230   0.274   0.334   0.278   0.079   0.110   0.124
 1988 317   139   192   107      0      0    581     0     0   100    0.00   0.0   0.0   0.00   0.098   0.226   0.271   0.331   0.276   0.078   0.110   0.124
 1988 318   140   190   105      0      0    581     0     0   100    0.00   0.0   0.0   0.00   0.094   0.221   0.268   0.328   0.274   0.078   0.109   0.123
 1988 319   141   188   103      0      0    581     0     0   100    0.00   0.0   0.0   0.00   0.090   0.216   0.264   0.325   0.272   0.078   0.109   0.123
 1988 320   142   186   100      0      0    581     0     0   100    0.00   0.0   0.0   0.00   0.085   0.209   0.260   0.321   0.269   0.078   0.109   0.122
 1988 321   143   186   100      0      0    584     0     0   100    0.00   0.0   0.0   0.00   0.138   0.202   0.255   0.317   0.266   0.077   0.108   0.122
 1988 322   144   183    97      0      0    584     0     0   100    0.00   0.0   0.0   0.00   0.126   0.195   0.251   0.313   0.263   0.077   0.108   0.121
 1988 323   145   180    94      0      0    584     0     0   100    0.00   0.0   0.0   0.00   0.115   0.189   0.246   0.309   0.260   0.077   0.107   0.121
 1988 324   146   177    92      0      0    584     0     0   100    0.00   0.0   0.0   0.00   0.107   0.183   0.242   0.305   0.258   0.076   0.107   0.120
 1988 325   147   175    90      0      0    584     0     0   100    0.00   0.0   0.0   0.00   0.101   0.178   0.239   0.302   0.255   0.076   0.106   0.120
 1988 326   148   173    87      0      0    584     0     0   100    0.00   0.0   0.0   0.00   0.095   0.173   0.235   0.298   0.253   0.076   0.106   0.119
 1988 327   149   170    84      0      0    584     0     0   100    0.00   0.0   0.0   0.00   0.088   0.166   0.230   0.294   0.249   0.076   0.105   0.119
 1988 328   150   167    82      0      0    584     0     0   100    0.00   0.0   0.0   0.00   0.083   0.160   0.226   0.289   0.247   0.075   0.105   0.118
 1988 329   151   166    80      0      0    584     0     0   100    0.00   0.0   0.0   0.00   0.082   0.158   0.223   0.286   0.244   0.075   0.104   0.118
 1988 330   152   164    78      0      0    584     0     0   100    0.00   0.0   0.0   0.00   0.082   0.155   0.220   0.283   0.241   0.075   0.103   0.117
 1988 331   153   162    76      0      0    584     0     0   100    0.00   0.0   0.0   0.00   0.081   0.151   0.217   0.279   0.238   0.074   0.103   0.116
 1988 332   154   160    74      0      0    584     0     0   100    0.00   0.0   0.0   0.00   0.080   0.149   0.215   0.276   0.235   0.074   0.102   0.115
 1988 333   155   158    73      0      0    584     0     0   100    0.00   0.0   0.0   0.00   0.079   0.146   0.212   0.272   0.232   0.073   0.101   0.114
 1988 334   156   156    71      0      0    584     0     0   100    0.00   0.0   0.0   0.00   0.079   0.143   0.209   0.269   0.229   0.073   0.101   0.113

*DSSAT Cropping System Model Ver. 4.6.1.000 -release      DEC 02, 2018; 12:33:07
                                                                                
*RUN   4        : 89_01                     RICER046 SSKT0001    4              
 MODEL          : RICER046 - Rice                                               
 EXPERIMENT     : SSKT0001 RI mulation, Thailand                                
 DATA PATH      : C:\DSSAT46\Rice\                                              
 TREATMENT  4   : 89_01                     RICER046                            
  
!                                                                                                 Soil water content (mm3/mm3) by soil depth (cm):
!                                                                                                 0-5    5-15   15-30   30-42   42-55   55-67   67-80  80-100
@YEAR DOY   DAS  SWTD  SWXD   ROFC   DRNC   PREC  IR#C  IRRC  DTWT    MWTD  TDFD  TDFC   ROFD    SW1D    SW2D    SW3D    SW4D    SW5D    SW6D    SW7D    SW8D    
 1989 178     0   228   142      0      0      0     0     0     0    0.00   0.0   0.0   0.00   0.200   0.200   0.200   0.200   0.200   0.200   0.282   0.286
 1989 179     1   223   137      0      0      0     0     0    50    0.00   0.0   0.0   0.00   0.176   0.191   0.194   0.196   0.197   0.198   0.279   0.283
 1989 180     2   218   133      0      0      0     0     0   100    0.00   0.0   0.0   0.00   0.155   0.182   0.189   0.192   0.194   0.195   0.276   0.281
 1989 181     3   213   128      0      0      0     0     0   100    0.00   0.0   0.0   0.00   0.136   0.173   0.184   0.189   0.191   0.193   0.273   0.278
 1989 182     4   266   180      0      0     58     0     0   100    0.00   0.0   0.0   0.00   0.338   0.357   0.347   0.195   0.188   0.191   0.270   0.275
 1989 183     5   263   178      0      0     63     0     0   100    0.00   0.0   0.0   0.00   0.328   0.354   0.346   0.197   0.185   0.189   0.267   0.273
 1989 184     6   259   173      0      0     66     0     0   100    0.00   0.0   0.0   0.00   0.325   0.343   0.336   0.193   0.182   0.186   0.264   0.270
 1989 185     7   265   180      0      0     79     0     0   100    0.00   0.0   0.0   0.00   0.332   0.355   0.347   0.234   0.180   0.185   0.262   0.268
 1989 186     8   274   189      0      0     91     0     0   100    0.00   0.0   0.0   0.00   0.348   0.361   0.350   0.298   0.178   0.184   0.260   0.267
 1989 187     9   267   181      0      0     91     0     0   100    0.00   0.0   0.0   0.00   0.304   0.344   0.340   0.292   0.175   0.181   0.257   0.264
 1989 188    10   259   174      0      0     91     0     0   100    0.00   0.0   0.0   0.00   0.265   0.327   0.330   0.286   0.173   0.179   0.255   0.262
 1989 189    11   252   167      0      0     91     0     0   100    0.00   0.0   0.0   0.00   0.232   0.311   0.321   0.280   0.170   0.177   0.252   0.259
 1989 190    12   306   221      0      0    151     0     0   100    0.00   0.0   0.0   0.00   0.338   0.356   0.347   0.398   0.375   0.176   0.249   0.257
 1989 191    13   329   244      0      0    179     0     0   100    0.00   0.0   0.0   0.00   0.345   0.360   0.349   0.399   0.400   0.333   0.248   0.256
 1989 192    14   331   246      0      0    186     0     0   100    0.00   0.0   0.0   0.00   0.347   0.361   0.350   0.400   0.401   0.349   0.247   0.255
 1989 193    15   338   253      0      0    198     0     0   100    0.00   0.0   0.0   0.00   0.346   0.361   0.350   0.400   0.401   0.417   0.245   0.253
 1989 194    16   333   247      0      0    198     0     0   100    0.00   0.0   0.0   0.00   0.321   0.348   0.343   0.394   0.396   0.413   0.243   0.252
 1989 195    17   332   246      0      0    204     0     0   100    0.00   0.0   0.0   0.00   0.335   0.356   0.344   0.388   0.391   0.408   0.241   0.250
 1989 196    18   329   243      0      0    206     0     0   100    0.00   0.0   0.0   0.00   0.341   0.352   0.338   0.383   0.387   0.405   0.240   0.248
 1989 197    19   320   235      0      0    206     0     0   100    0.00   0.0   0.0   0.00   0.298   0.335   0.328   0.375   0.380   0.400   0.237   0.246
 1989 198    20   313   227      0      0    206     0     0   100    0.00   0.0   0.0   0.00   0.264   0.320   0.320   0.368   0.375   0.395   0.235   0.244
 1989 199    21   305   220      0      0    206     0     0   100    0.00   0.0   0.0   0.00   0.232   0.305   0.311   0.361   0.369   0.390   0.232   0.242
 1989 200    22   300   215      0      0    206     0     0   100    0.00   0.0   0.0   0.00   0.211   0.295   0.304   0.356   0.364   0.386   0.230   0.240
 1989 201    23   307   221      0      0    218     0     0   100    0.00   0.0   0.0   0.00   0.345   0.324   0.298   0.351   0.360   0.383   0.229   0.238
 1989 202    24   300   215      0      0    218     0     0   100    0.00   0.0   0.0   0.00   0.310   0.311   0.292   0.345   0.355   0.379   0.227   0.237
 1989 203    25   329   244      0      0    250     0     0   100    0.00   0.0   0.0   0.00   0.354   0.364   0.352   0.401   0.402   0.377   0.226   0.236
 1989 204    26   344   259      0      0    268     0     0   100    0.00   0.0   0.0   0.00   0.356   0.365   0.352   0.401   0.402   0.428   0.295   0.235
 1989 205    27   341   256      0      0    268     0     0   100    0.00   0.0   0.0   0.00   0.340   0.358   0.348   0.399   0.400   0.426   0.293   0.234
 1989 206    28   339   253      0      0    270     0     0   100    0.00   0.0   0.0   0.00   0.347   0.357   0.343   0.394   0.396   0.423   0.292   0.233
 1989 207    29   344   259      0      0    282     0     0   100    0.00   0.0   0.0   0.00   0.337   0.357   0.348   0.398   0.399   0.426   0.323   0.232
[...]
 2017 203    25   362   277      0      0    266     0     0   100    0.00   0.0   0.0   0.00   0.326   0.353   0.345   0.396   0.398   0.424   0.425   0.268
 2017 204    26   361   275      0      0    269     0     0   100    0.00   0.0   0.0   0.00   0.347   0.353   0.340   0.392   0.394   0.422   0.423   0.267
 2017 205    27   396   311      0      0    309     0     0    83    0.00   0.0   0.0   0.00   0.349   0.362   0.351   0.400   0.401   0.427   0.428   0.415
 2017 206    28   401   316      0      0    412     0     0     3    0.00   0.0   0.0   0.00   0.356   0.365   0.352   0.402   0.402   0.428   0.429   0.433
 2017 207    29   401   316      0      0    431     0     0     3    0.00   0.0   0.0   0.00   0.356   0.365   0.352   0.402   0.402   0.428   0.429   0.433
 2017 208    30   401   315      0      0    447     0     0     3    0.00   0.0   0.0   0.00   0.353   0.363   0.351   0.401   0.402   0.428   0.428   0.432
 2017 209    31   399   313      0      0    450     0     0     4    0.00   0.0   0.0   0.00   0.348   0.362   0.350   0.400   0.401   0.426   0.426   0.430
 2017 210    32   395   309      0      0    450     0     0    13    0.00   0.0   0.0   0.00   0.329   0.354   0.346   0.397   0.398   0.423   0.424   0.428
 2017 211    33   388   303      0      0    450     0     0    81    0.00   0.0   0.0   0.00   0.299   0.342   0.339   0.391   0.393   0.419   0.420   0.425
 2017 212    34   382   296      0      0    450     0     0    82    0.00   0.0   0.0   0.00   0.273   0.330   0.332   0.385   0.389   0.415   0.417   0.422
 2017 213    35   375   290      0      0    450     0     0    82    0.00   0.0   0.0   0.00   0.246   0.318   0.325   0.379   0.384   0.411   0.413   0.419
 2017 214    36   370   284      0      0    453     0     0    83    0.00   0.0   0.0   0.00   0.271   0.303   0.316   0.372   0.378   0.406   0.408   0.415
 2017 215    37   362   277      0      0    453     0     0    83    0.00   0.0   0.0   0.00   0.239   0.290   0.307   0.365   0.372   0.401   0.404   0.411
 2017 216    38   398   312      0      0    502     0     0    11    0.00   0.0   0.0   0.00   0.342   0.358   0.348   0.398   0.399   0.426   0.426   0.431
 2017 217    39   404   319      0      0    502     0     0    11    0.00   0.0   0.0   0.00   0.370   0.370   0.355   0.404   0.404   0.430   0.430   0.434
 2017 218    40   398   313      0      0    537     0     0    10    0.00   0.0   0.0   0.00   0.343   0.360   0.349   0.399   0.400   0.427   0.427   0.431
 2017 219    41   404   319      0     10    537     0     0    10    0.00   0.0   0.0   0.00   0.370   0.370   0.355   0.404   0.404   0.430   0.430   0.434
 2017 220    42   404   319      0     20    537     0     0    10    0.00   0.0   0.0   0.00   0.370   0.370   0.355   0.404   0.404   0.430   0.430   0.434
 2017 221    43   396   311      0     20    539     0     0    12    0.00   0.0   0.0   0.00   0.331   0.355   0.347   0.397   0.398   0.425   0.426   0.430
 2017 222    44   391   306      0     20    539     0     0    12    0.00   0.0   0.0   0.00   0.335   0.344   0.340   0.392   0.394   0.421   0.423   0.427
 2017 223    45   383   297      0     20    539     0     0    81    0.00   0.0   0.0   0.00   0.295   0.328   0.331   0.384   0.388   0.416   0.418   0.423
 2017 224    46   374   289      0     20    539     0     0    82    0.00   0.0   0.0   0.00   0.259   0.313   0.322   0.377   0.382   0.411   0.413   0.419
 2017 225    47   366   281      0     20    539     0     0    83    0.00   0.0   0.0   0.00   0.227   0.298   0.313   0.369   0.376   0.406   0.408   0.415
 2017 226    48   366   281      0     20    546     0     0    83    0.00   0.0   0.0   0.00   0.339   0.286   0.305   0.363   0.370   0.401   0.405   0.412
 2017 227    49   365   280      0     20    549     0     0    83    0.00   0.0   0.0   0.00   0.351   0.291   0.302   0.360   0.368   0.399   0.403   0.410
 2017 228    50   360   275      0     20    549     0     0    84    0.00   0.0   0.0   0.00   0.335   0.282   0.296   0.356   0.364   0.396   0.400   0.407
 2017 229    51   396   311      0     20    603     0     0    12    0.00   0.0   0.0   0.00   0.331   0.356   0.347   0.397   0.399   0.425   0.426   0.430
 2017 230    52   404   319      0     28    609     0     0    12    0.00   0.0   0.0   0.00   0.370   0.370   0.355   0.404   0.404   0.430   0.430   0.434
 2017 231    53   399   314      0     28    624     0     0     5    0.00   0.0   0.0   0.00   0.346   0.361   0.350   0.400   0.401   0.427   0.427   0.432
 2017 232    54   404   319      0     38    627     0     0     5    0.00   0.0   0.0   0.00   0.370   0.370   0.355   0.404   0.404   0.430   0.430   0.434
 2017 233    55   396   310      0     38    627     0     0    12    0.00   0.0   0.0   0.00   0.330   0.355   0.346   0.397   0.398   0.425   0.426   0.430
 2017 234    56   394   309      0     38    631     0     0    12    0.00   0.0   0.0   0.00   0.341   0.359   0.346   0.392   0.394   0.421   0.422   0.427
 2017 235    57   387   302      0     38    631     0     0    81    0.00   0.0   0.0   0.00   0.310   0.346   0.339   0.386   0.389   0.418   0.419   0.424
 2017 236    58   399   314      0     38    653     0     0     5    0.00   0.0   0.0   0.00   0.347   0.361   0.350   0.400   0.401   0.427   0.427   0.432
 2017 237    59   402   317      0     42    657     0     0     5    0.00   0.0   0.0   0.00   0.360   0.366   0.353   0.402   0.403   0.429   0.429   0.433
 2017 238    60   399   314      0     42    658     0     0     4    0.00   0.0   0.0   0.00   0.353   0.363   0.349   0.399   0.400   0.427   0.427   0.431
 2017 239    61   400   315      0     42    682     0     0     4    0.00   0.0   0.0   0.00   0.351   0.363   0.351   0.401   0.401   0.428   0.428   0.432
 2017 240    62   404   319      0     52    713     0     0     4    0.00   0.0   0.0   0.00   0.370   0.370   0.355   0.404   0.404   0.430   0.430   0.434
 2017 241    63   404   319      0     62    719     0     0     4    0.00   0.0   0.0   0.00   0.370   0.370   0.355   0.404   0.404   0.430   0.430   0.434
 2017 242    64   403   318      0     72    793     0     0     4    0.00   0.0   0.0   0.00   0.360   0.369   0.355   0.404   0.404   0.430   0.430   0.434
 2017 243    65   403   318      0     82    793     0     0     4    0.00   0.0   0.0   0.00   0.359   0.369   0.355   0.404   0.404   0.430   0.430   0.434
 2017 244    66   403   318      0     92    793     0     0     4    0.00   0.0   0.0   0.00   0.360   0.369   0.355   0.404   0.404   0.430   0.430   0.434
 2017 245    67   403   318      0    102    793     0     0     4    0.00   0.0   0.0   0.00   0.358   0.368   0.355   0.404   0.404   0.430   0.430   0.434
 2017 246    68   403   318      0    112    793     0     0     4    0.00   0.0   0.0   0.00   0.360   0.367   0.355   0.404   0.404   0.430   0.430   0.434
 2017 247    69   403   318      0    122    793     0     0     4    0.00   0.0   0.0   0.00   0.359   0.367   0.355   0.404   0.404   0.430   0.430   0.434
 2017 248    70   399   314      0    124    793     0     0     4    0.00   0.0   0.0   0.00   0.341   0.359   0.351   0.401   0.401   0.428   0.428   0.432
 2017 249    71   394   308      0    124    793     0     0    13    0.00   0.0   0.0   0.00   0.312   0.347   0.345   0.396   0.398   0.425   0.425   0.430
 2017 250    72   388   303      0    124    793     0     0    79    0.00   0.0   0.0   0.00   0.285   0.335   0.340   0.392   0.394   0.422   0.423   0.427
 2017 251    73   383   298      0    124    793     0     0    81    0.00   0.0   0.0   0.00   0.262   0.325   0.335   0.388   0.391   0.419   0.420   0.425
 2017 252    74   389   303      0    124    805     0     0    82    0.00   0.0   0.0   0.00   0.339   0.356   0.342   0.383   0.387   0.415   0.417   0.423
 2017 253    75   383   297      0    124    805     0     0    82    0.00   0.0   0.0   0.00   0.309   0.343   0.337   0.378   0.383   0.412   0.414   0.420
 2017 254    76   378   293      0    124    807     0     0    82    0.00   0.0   0.0   0.00   0.322   0.329   0.330   0.372   0.379   0.408   0.411   0.417
 2017 255    77   373   287      0    124    807     0     0    83    0.00   0.0   0.0   0.00   0.294   0.317   0.325   0.368   0.375   0.405   0.408   0.415
 2017 256    78   366   281      0    124    807     0     0    83    0.00   0.0   0.0   0.00   0.265   0.302   0.318   0.362   0.371   0.402   0.405   0.412
 2017 257    79   364   279      0    124    808     0     0    83    0.00   0.0   0.0   0.00   0.265   0.296   0.315   0.360   0.369   0.400   0.404   0.411
 2017 258    80   362   276      0    124    808     0     0    83    0.00   0.0   0.0   0.00   0.261   0.291   0.313   0.358   0.367   0.398   0.402   0.410
 2017 259    81   359   274      0    124    811     0     0    84    0.00   0.0   0.0   0.00   0.290   0.280   0.308   0.354   0.364   0.395   0.400   0.407
 2017 260    82   371   285      0    124    829     0     0    84    0.00   0.0   0.0   0.00   0.339   0.357   0.333   0.349   0.360   0.392   0.397   0.405
 2017 261    83   364   278      0    124    829     0     0    84    0.00   0.0   0.0   0.00   0.302   0.341   0.326   0.344   0.355   0.388   0.393   0.402
 2017 262    84   369   283      0    124    840     0     0    85    0.00   0.0   0.0   0.00   0.337   0.355   0.349   0.347   0.351   0.385   0.391   0.399
 2017 263    85   364   279      0    124    840     0     0    85    0.00   0.0   0.0   0.00   0.314   0.346   0.344   0.343   0.349   0.383   0.389   0.398
 2017 264    86   360   275      0    124    841     0     0    85    0.00   0.0   0.0   0.00   0.307   0.334   0.339   0.339   0.346   0.380   0.386   0.395
 2017 265    87   399   313      0    124    885     0     0     9    0.00   0.0   0.0   0.00   0.344   0.359   0.350   0.400   0.401   0.427   0.428   0.432
 2017 266    88   399   313      0    124    892     0     0    10    0.00   0.0   0.0   0.00   0.342   0.358   0.350   0.399   0.400   0.427   0.427   0.432
 2017 267    89   400   315      0    124    894     0     0    10    0.00   0.0   0.0   0.00   0.358   0.364   0.353   0.400   0.399   0.426   0.426   0.431
 2017 268    90   400   315      0    124    942     0     0     4    0.00   0.0   0.0   0.00   0.351   0.362   0.352   0.401   0.402   0.428   0.428   0.433
 2017 269    91   403   318      0    134    952     0     0     4    0.00   0.0   0.0   0.00   0.365   0.367   0.355   0.404   0.404   0.430   0.430   0.434
 2017 270    92   403   318      0    144    952     0     0     4    0.00   0.0   0.0   0.00   0.363   0.366   0.355   0.404   0.404   0.430   0.430   0.434
 2017 271    93   403   318      0    154    952     0     0     4    0.00   0.0   0.0   0.00   0.365   0.367   0.355   0.404   0.404   0.430   0.430   0.434
 2017 272    94   403   317      0    158    958     0     0     4    0.00   0.0   0.0   0.00   0.363   0.366   0.354   0.403   0.403   0.430   0.430   0.434
 2017 273    95   400   315      0    158    958     0     0     4    0.00   0.0   0.0   0.00   0.349   0.361   0.351   0.401   0.402   0.428   0.428   0.432
 2017 274    96   394   309      0    158    958     0     0    13    0.00   0.0   0.0   0.00   0.322   0.348   0.345   0.396   0.397   0.424   0.425   0.430
 2017 275    97   400   315      0    158    988     0     0     4    0.00   0.0   0.0   0.00   0.350   0.361   0.351   0.401   0.401   0.428   0.428   0.432
 2017 276    98   404   318      0    168    998     0     0     4    0.00   0.0   0.0   0.00   0.367   0.368   0.355   0.404   0.404   0.430   0.430   0.434
 2017 277    99   404   318      0    178   1017     0     0     4    0.00   0.0   0.0   0.00   0.367   0.368   0.355   0.404   0.404   0.430   0.430   0.434
 2017 278   100   404   318      0    188   1021     0     0     4    0.00   0.0   0.0   0.00   0.366   0.368   0.355   0.404   0.404   0.430   0.430   0.434
 2017 279   101   404   318      0    196   1029     0     0     4    0.00   0.0   0.0   0.00   0.367   0.368   0.355   0.404   0.404   0.430   0.430   0.434
 2017 280   102   404   318      0    200   1029     0     0     4    0.00   0.0   0.0   0.00   0.367   0.368   0.355   0.404   0.404   0.430   0.430   0.434
 2017 281   103   398   313      0    200   1029     0     0    10    0.00   0.0   0.0   0.00   0.338   0.356   0.350   0.399   0.400   0.427   0.427   0.432
 2017 282   104   398   312      0    200   1034     0     0     9    0.00   0.0   0.0   0.00   0.346   0.360   0.350   0.400   0.399   0.424   0.425   0.430
 2017 283   105   401   316      0    200   1064     0     0     3    0.00   0.0   0.0   0.00   0.354   0.364   0.352   0.401   0.402   0.428   0.428   0.433
 2017 284   106   404   318      0    210   1064     0     0     3    0.00   0.0   0.0   0.00   0.367   0.368   0.355   0.404   0.404   0.430   0.430   0.434
 2017 285   107   404   318      0    216   1064     0     0     3    0.00   0.0   0.0   0.00   0.368   0.369   0.355   0.404   0.404   0.430   0.430   0.434
 2017 286   108   398   313      0    216   1064     0     0     9    0.00   0.0   0.0   0.00   0.341   0.357   0.350   0.400   0.400   0.427   0.427   0.432
 2017 287   109   393   307      0    216   1064     0     0    14    0.00   0.0   0.0   0.00   0.314   0.346   0.344   0.395   0.397   0.424   0.425   0.429
 2017 288   110   387   301      0    216   1064     0     0    80    0.00   0.0   0.0   0.00   0.286   0.334   0.338   0.390   0.393   0.420   0.421   0.427
 2017 289   111   399   314      0    216   1093     0     0     9    0.00   0.0   0.0   0.00   0.347   0.360   0.350   0.400   0.401   0.427   0.427   0.432
 2017 290   112   404   318      0    223   1093     0     0     9    0.00   0.0   0.0   0.00   0.368   0.369   0.355   0.404   0.404   0.430   0.430   0.434
 2017 291   113   398   312      0    223   1093     0     0    10    0.00   0.0   0.0   0.00   0.338   0.356   0.349   0.399   0.400   0.427   0.427   0.431
 2017 292   114   392   307      0    223   1093     0     0    14    0.00   0.0   0.0   0.00   0.310   0.344   0.344   0.394   0.396   0.423   0.424   0.429
 2017 293   115   385   300      0    223   1093     0     0    81    0.00   0.0   0.0   0.00   0.279   0.330   0.337   0.389   0.392   0.419   0.421   0.426
 2017 294   116   379   293      0    223   1093     0     0    82    0.00   0.0   0.0   0.00   0.252   0.317   0.330   0.383   0.387   0.415   0.417   0.423
 2017 295   117   372   287      0    223   1093     0     0    82    0.00   0.0   0.0   0.00   0.226   0.304   0.323   0.377   0.382   0.411   0.413   0.420
 2017 296   118   366   281      0    223   1093     0     0    82    0.00   0.0   0.0   0.00   0.202   0.291   0.317   0.371   0.378   0.407   0.410   0.417
 2017 297   119   361   276      0    223   1093     0     0    83    0.00   0.0   0.0   0.00   0.187   0.282   0.312   0.367   0.374   0.404   0.407   0.414
 2017 298   120   356   270      0    223   1093     0     0    83    0.00   0.0   0.0   0.00   0.168   0.271   0.306   0.362   0.370   0.400   0.404   0.411
 2017 299   121   350   265      0    223   1093     0     0    83    0.00   0.0   0.0   0.00   0.151   0.260   0.300   0.356   0.365   0.396   0.400   0.408
 2017 300   122   344   259      0    223   1093     0     0    84    0.00   0.0   0.0   0.00   0.134   0.248   0.293   0.351   0.361   0.392   0.397   0.405
 2017 301   123   339   253      0    223   1093     0     0    84    0.00   0.0   0.0   0.00   0.119   0.237   0.287   0.345   0.356   0.388   0.393   0.402
 2017 302   124   333   247      0    223   1093     0     0    85    0.00   0.0   0.0   0.00   0.106   0.226   0.280   0.339   0.351   0.384   0.389   0.399
 2017 303   125   327   242      0    223   1093     0     0    85    0.00   0.0   0.0   0.00   0.096   0.215   0.274   0.334   0.346   0.380   0.386   0.395
 2017 304   126   324   239      0    223   1094     0     0    86    0.00   0.0   0.0   0.00   0.112   0.206   0.269   0.329   0.343   0.376   0.383   0.393
 2017 305   127   322   237      0    223   1094     0     0    86    0.00   0.0   0.0   0.00   0.110   0.203   0.266   0.327   0.341   0.375   0.381   0.392
 2017 306   128   317   231      0    223   1094     0     0    86    0.00   0.0   0.0   0.00   0.099   0.192   0.260   0.321   0.336   0.370   0.377   0.388
 2017 307   129   311   226      0    223   1094     0     0    87    0.00   0.0   0.0   0.00   0.090   0.183   0.254   0.316   0.331   0.366   0.374   0.385
 2017 308   130   309   224      0    223   1094     0     0    87    0.00   0.0   0.0   0.00   0.089   0.179   0.252   0.314   0.329   0.365   0.372   0.384
 2017 309   131   312   226      0    223   1098     0     0    87    0.00   0.0   0.0   0.00   0.169   0.175   0.250   0.312   0.328   0.363   0.371   0.382
 2017 310   132   309   223      0    223   1098     0     0    87    0.00   0.0   0.0   0.00   0.158   0.171   0.247   0.309   0.325   0.361   0.369   0.381
 2017 311   133   304   219      0    223   1098     0     0    88    0.00   0.0   0.0   0.00   0.143   0.164   0.242   0.304   0.322   0.358   0.366   0.378
 2017 312   134   300   215      0    223   1098     0     0    88    0.00   0.0   0.0   0.00   0.130   0.158   0.237   0.300   0.318   0.354   0.363   0.375
 2017 313   135   295   209      0    223   1098     0     0    88    0.00   0.0   0.0   0.00   0.115   0.150   0.232   0.295   0.313   0.350   0.359   0.372
 2017 314   136   290   205      0    223   1098     0     0    89    0.00   0.0   0.0   0.00   0.103   0.143   0.226   0.290   0.309   0.346   0.356   0.369
 2017 315   137   285   199      0    223   1098     0     0    89    0.00   0.0   0.0   0.00   0.092   0.135   0.220   0.284   0.304   0.342   0.352   0.366
 2017 316   138   280   195      0    223   1098     0     0    90    0.00   0.0   0.0   0.00   0.084   0.127   0.215   0.279   0.300   0.338   0.348   0.363
 2017 317   139   277   192      0    223   1098     0     0    90    0.00   0.0   0.0   0.00   0.083   0.124   0.213   0.276   0.297   0.335   0.345   0.359
 2017 318   140   274   188      0    223   1098     0     0    91    0.00   0.0   0.0   0.00   0.083   0.120   0.210   0.273   0.293   0.331   0.341   0.355
 2017 319   141   276   190      0    223   1104     0     0    91    0.00   0.0   0.0   0.00   0.184   0.115   0.206   0.269   0.290   0.328   0.338   0.353
 2017 320   142   270   185      0    223   1104     0     0    91    0.00   0.0   0.0   0.00   0.160   0.110   0.201   0.264   0.285   0.324   0.335   0.349
 2017 321   143   265   179      0    223   1104     0     0    92    0.00   0.0   0.0   0.00   0.137   0.105   0.195   0.258   0.280   0.319   0.331   0.346
 2017 322   144   260   174      0    223   1104     0     0    92    0.00   0.0   0.0   0.00   0.119   0.100   0.190   0.253   0.276   0.315   0.327   0.342
 2017 323   145   256   170      0    223   1104     0     0    93    0.00   0.0   0.0   0.00   0.106   0.097   0.186   0.249   0.272   0.312   0.324   0.340
 2017 324   146   252   167      0    223   1104     0     0    93    0.00   0.0   0.0   0.00   0.097   0.094   0.182   0.245   0.269   0.309   0.321   0.337
 2017 325   147   248   162      0    223   1104     0     0    94    0.00   0.0   0.0   0.00   0.087   0.090   0.177   0.240   0.264   0.305   0.317   0.334
 2017 326   148   244   159      0    223   1104     0     0    94    0.00   0.0   0.0   0.00   0.082   0.087   0.173   0.236   0.261   0.301   0.314   0.331
 2017 327   149   241   156      0    223   1104     0     0    94    0.00   0.0   0.0   0.00   0.081   0.086   0.171   0.233   0.257   0.298   0.310   0.327
